 <routes>
	<vType id="vtype0" accel="3" decel="9.81" sigma="0.5" length="3.5" minGap="2.5" maxSpeed="50"/>
	<route id="route0" edges="gneE2 gneE3 gneE4"></route>
	<route id="route1" edges="-gneE4 -gneE3 -gneE2"></route>
	<flow id="flow0" type="vtype0" route="route0" begin="0" period="8" number="5" departLane="0" departSpeed="max"/>
	<flow id="flow1" type="vtype0" route="route1" begin="5" period="8" number="5" departLane="0" departSpeed="max"/>
	<flow id="flow2" type="vtype0" route="route0" begin="45" period="9" number="5" departLane="1" departSpeed="max"/>
	<flow id="flow3" type="vtype0" route="route1" begin="50" period="9" number="5" departLane="1" departSpeed="max"/>
	<flow id="flow4" type="vtype0" route="route0" begin="90" period="10" number="5" departLane="2" departSpeed="max"/>
	<flow id="flow5" type="vtype0" route="route1" begin="95" period="10" number="5" departLane="2" departSpeed="max"/>
</routes>
