<?xml version="1.0" encoding="UTF-8"?>

<!-- generated on 2016/12/27 11:40:43 by Netedit Version 0.27.1
<?xml version="1.0" encoding="UTF-8"?>

<configuration xmlns:xsi="http://www.w3.org/2001/XMLSchema-instance" xsi:noNamespaceSchemaLocation="http://sumo.dlr.de/xsd/netedit.exeConfiguration.xsd">

    <input>
        <sumo-net-file value="D:\veins-4.4\tests\multilane\multilane.net.xml"/>
    </input>

    <output>
        <output-file value="D:\veins-4.4\tests\multilane\multilane.net.xml"/>
    </output>

    <processing>
        <no-turnarounds value="true"/>
        <offset.disable-normalization value="true"/>
        <lefthand value="false"/>
        <junctions.corner-detail value="0"/>
    </processing>

</configuration>
-->

<net version="0.27" xmlns:xsi="http://www.w3.org/2001/XMLSchema-instance" xsi:noNamespaceSchemaLocation="http://sumo.dlr.de/xsd/net_file.xsd">

    <location netOffset="0.00,0.00" convBoundary="1.58,-98.83,2970.50,99.11" origBoundary="-10000000000.00,-10000000000.00,10000000000.00,10000000000.00" projParameter="!"/>

    <edge id=":gneJ5_0" function="internal">
        <lane id=":gneJ5_0_0" index="0" speed="13.89" length="5.05" shape="272.54,11.67 271.16,11.86 270.18,12.45 269.59,13.42 269.39,14.79"/>
    </edge>
    <edge id=":gneJ5_1" function="internal">
        <lane id=":gneJ5_1_0" index="0" speed="13.89" length="16.13" shape="272.54,11.67 256.40,11.66"/>
        <lane id=":gneJ5_1_1" index="1" speed="13.89" length="16.13" shape="272.54,8.37 256.40,8.36"/>
        <lane id=":gneJ5_1_2" index="2" speed="13.89" length="16.13" shape="272.53,5.07 256.41,5.06"/>
    </edge>
    <edge id=":gneJ5_4" function="internal">
        <lane id=":gneJ5_4_0" index="0" speed="13.89" length="5.75" shape="272.53,5.07 268.28,4.26 267.18,3.36"/>
    </edge>
    <edge id=":gneJ5_18" function="internal">
        <lane id=":gneJ5_18_0" index="0" speed="13.89" length="12.65" shape="267.18,3.36 265.25,1.82 263.43,-2.25 262.83,-7.94"/>
    </edge>
    <edge id=":gneJ5_5" function="internal">
        <lane id=":gneJ5_5_0" index="0" speed="13.89" length="5.00" shape="269.43,-7.93 269.63,-6.58 270.21,-5.61 271.17,-5.03 272.53,-4.83"/>
    </edge>
    <edge id=":gneJ5_6" function="internal">
        <lane id=":gneJ5_6_0" index="0" speed="13.89" length="22.72" shape="269.43,-7.93 269.39,14.79"/>
        <lane id=":gneJ5_6_1" index="1" speed="13.89" length="22.72" shape="266.13,-7.94 266.09,14.78"/>
    </edge>
    <edge id=":gneJ5_8" function="internal">
        <lane id=":gneJ5_8_0" index="0" speed="13.89" length="8.41" shape="266.13,-7.94 265.52,-2.25 264.42,0.20"/>
    </edge>
    <edge id=":gneJ5_19" function="internal">
        <lane id=":gneJ5_19_0" index="0" speed="13.89" length="9.98" shape="264.42,0.20 263.69,1.82 260.66,4.25 256.41,5.06"/>
    </edge>
    <edge id=":gneJ5_9" function="internal">
        <lane id=":gneJ5_9_0" index="0" speed="13.89" length="5.01" shape="256.43,-4.84 257.78,-5.03 258.75,-5.62 259.34,-6.59 259.53,-7.95"/>
    </edge>
    <edge id=":gneJ5_10" function="internal">
        <lane id=":gneJ5_10_0" index="0" speed="13.89" length="16.11" shape="256.43,-4.84 272.53,-4.83"/>
        <lane id=":gneJ5_10_1" index="1" speed="13.89" length="16.11" shape="256.42,-1.54 272.53,-1.53"/>
        <lane id=":gneJ5_10_2" index="2" speed="13.89" length="16.11" shape="256.41,1.76 272.53,1.77"/>
    </edge>
    <edge id=":gneJ5_13" function="internal">
        <lane id=":gneJ5_13_0" index="0" speed="13.89" length="5.73" shape="256.41,1.76 260.66,2.58 261.76,3.46"/>
    </edge>
    <edge id=":gneJ5_20" function="internal">
        <lane id=":gneJ5_20_0" index="0" speed="13.89" length="12.66" shape="261.76,3.46 263.69,5.02 265.50,9.09 266.09,14.78"/>
    </edge>
    <edge id=":gneJ5_14" function="internal">
        <lane id=":gneJ5_14_0" index="0" speed="13.89" length="5.00" shape="259.49,14.76 259.30,13.41 258.72,12.44 257.76,11.85 256.40,11.66"/>
    </edge>
    <edge id=":gneJ5_15" function="internal">
        <lane id=":gneJ5_15_0" index="0" speed="13.89" length="22.71" shape="259.49,14.76 259.53,-7.95"/>
        <lane id=":gneJ5_15_1" index="1" speed="13.89" length="22.71" shape="262.79,14.77 262.83,-7.94"/>
    </edge>
    <edge id=":gneJ5_17" function="internal">
        <lane id=":gneJ5_17_0" index="0" speed="13.89" length="8.39" shape="262.79,14.77 263.41,9.08 264.51,6.65"/>
    </edge>
    <edge id=":gneJ5_21" function="internal">
        <lane id=":gneJ5_21_0" index="0" speed="13.89" length="10.02" shape="264.51,6.65 265.24,5.02 268.28,2.58 272.53,1.77"/>
    </edge>
    <edge id=":gneJ6_0" function="internal">
        <lane id=":gneJ6_0_0" index="0" speed="13.89" length="5.06" shape="2695.57,14.20 2695.37,12.83 2694.78,11.85 2693.80,11.27 2692.43,11.07"/>
    </edge>
    <edge id=":gneJ6_1" function="internal">
        <lane id=":gneJ6_1_0" index="0" speed="13.89" length="22.73" shape="2695.57,14.20 2695.52,-8.53"/>
        <lane id=":gneJ6_1_1" index="1" speed="13.89" length="22.73" shape="2698.87,14.19 2698.82,-8.54"/>
    </edge>
    <edge id=":gneJ6_3" function="internal">
        <lane id=":gneJ6_3_0" index="0" speed="13.89" length="8.40" shape="2698.87,14.19 2699.46,8.49 2700.55,6.05"/>
    </edge>
    <edge id=":gneJ6_18" function="internal">
        <lane id=":gneJ6_18_0" index="0" speed="13.89" length="10.01" shape="2700.55,6.05 2701.28,4.43 2704.31,1.98 2708.57,1.17"/>
    </edge>
    <edge id=":gneJ6_4" function="internal">
        <lane id=":gneJ6_4_0" index="0" speed="13.89" length="5.00" shape="2708.57,11.07 2707.21,11.26 2706.24,11.85 2705.66,12.82 2705.47,14.17"/>
    </edge>
    <edge id=":gneJ6_5" function="internal">
        <lane id=":gneJ6_5_0" index="0" speed="13.89" length="16.14" shape="2708.57,11.07 2692.43,11.07"/>
        <lane id=":gneJ6_5_1" index="1" speed="13.89" length="16.14" shape="2708.57,7.77 2692.43,7.77"/>
        <lane id=":gneJ6_5_2" index="2" speed="13.89" length="16.14" shape="2708.57,4.47 2692.43,4.47"/>
    </edge>
    <edge id=":gneJ6_8" function="internal">
        <lane id=":gneJ6_8_0" index="0" speed="13.89" length="5.75" shape="2708.57,4.47 2704.31,3.66 2703.20,2.77"/>
    </edge>
    <edge id=":gneJ6_19" function="internal">
        <lane id=":gneJ6_19_0" index="0" speed="13.89" length="12.66" shape="2703.20,2.77 2701.27,1.22 2699.44,-2.85 2698.82,-8.54"/>
    </edge>
    <edge id=":gneJ6_9" function="internal">
        <lane id=":gneJ6_9_0" index="0" speed="13.89" length="5.05" shape="2705.42,-8.55 2705.62,-7.18 2706.21,-6.21 2707.19,-5.63 2708.57,-5.43"/>
    </edge>
    <edge id=":gneJ6_10" function="internal">
        <lane id=":gneJ6_10_0" index="0" speed="13.89" length="22.72" shape="2705.42,-8.55 2705.47,14.17"/>
        <lane id=":gneJ6_10_1" index="1" speed="13.89" length="22.72" shape="2702.12,-8.54 2702.17,14.18"/>
    </edge>
    <edge id=":gneJ6_12" function="internal">
        <lane id=":gneJ6_12_0" index="0" speed="13.89" length="8.38" shape="2702.12,-8.54 2701.52,-2.85 2700.44,-0.42"/>
    </edge>
    <edge id=":gneJ6_20" function="internal">
        <lane id=":gneJ6_20_0" index="0" speed="13.89" length="10.01" shape="2700.44,-0.42 2699.71,1.22 2696.68,3.66 2692.43,4.47"/>
    </edge>
    <edge id=":gneJ6_13" function="internal">
        <lane id=":gneJ6_13_0" index="0" speed="13.89" length="5.00" shape="2692.42,-5.43 2693.78,-5.62 2694.75,-6.20 2695.33,-7.17 2695.52,-8.53"/>
    </edge>
    <edge id=":gneJ6_14" function="internal">
        <lane id=":gneJ6_14_0" index="0" speed="13.89" length="16.14" shape="2692.42,-5.43 2708.57,-5.43"/>
        <lane id=":gneJ6_14_1" index="1" speed="13.89" length="16.14" shape="2692.42,-2.13 2708.57,-2.13"/>
        <lane id=":gneJ6_14_2" index="2" speed="13.89" length="16.14" shape="2692.43,1.17 2708.57,1.17"/>
    </edge>
    <edge id=":gneJ6_17" function="internal">
        <lane id=":gneJ6_17_0" index="0" speed="13.89" length="5.74" shape="2692.43,1.17 2696.68,1.98 2697.78,2.87"/>
    </edge>
    <edge id=":gneJ6_21" function="internal">
        <lane id=":gneJ6_21_0" index="0" speed="13.89" length="12.67" shape="2697.78,2.87 2699.72,4.42 2701.55,8.49 2702.17,14.18"/>
    </edge>

    <edge id="-gneE2" from="gneJ5" to="gneJ4" priority="1">
        <lane id="-gneE2_0" index="0" speed="8.33" length="254.83" shape="256.40,11.66 1.57,11.25"/>
        <lane id="-gneE2_1" index="1" speed="11.11" length="254.83" shape="256.40,8.36 1.57,7.95"/>
        <lane id="-gneE2_2" index="2" speed="13.89" length="254.83" shape="256.41,5.06 1.58,4.65"/>
    </edge>
    <edge id="-gneE3" from="gneJ6" to="gneJ5" priority="1">
        <lane id="-gneE3_0" index="0" speed="8.33" length="2419.89" shape="2692.43,11.07 272.54,11.67"/>
        <lane id="-gneE3_1" index="1" speed="11.11" length="2419.89" shape="2692.43,7.77 272.54,8.37"/>
        <lane id="-gneE3_2" index="2" speed="13.89" length="2419.89" shape="2692.43,4.47 272.53,5.07"/>
    </edge>
    <edge id="-gneE4" from="gneJ7" to="gneJ6" priority="1">
        <lane id="-gneE4_0" index="0" speed="8.33" length="261.93" shape="2970.50,11.05 2708.57,11.07"/>
        <lane id="-gneE4_1" index="1" speed="11.11" length="261.93" shape="2970.50,7.75 2708.57,7.77"/>
        <lane id="-gneE4_2" index="2" speed="13.89" length="261.93" shape="2970.50,4.45 2708.57,4.47"/>
    </edge>
    <edge id="-gneE5" from="gneJ8" to="gneJ5" priority="1">
        <lane id="-gneE5_0" index="0" speed="8.33" length="84.33" shape="259.29,99.10 259.49,14.76"/>
        <lane id="-gneE5_1" index="1" speed="13.89" length="84.33" shape="262.59,99.11 262.79,14.77"/>
    </edge>
    <edge id="-gneE6" from="gneJ9" to="gneJ5" priority="1">
        <lane id="-gneE6_0" index="0" speed="8.33" length="90.73" shape="269.54,-98.66 269.43,-7.93"/>
        <lane id="-gneE6_1" index="1" speed="13.89" length="90.73" shape="266.24,-98.67 266.13,-7.94"/>
    </edge>
    <edge id="-gneE8" from="gneJ12" to="gneJ6" priority="1">
        <lane id="-gneE8_0" index="0" speed="8.33" length="83.21" shape="2695.80,97.41 2695.57,14.20"/>
        <lane id="-gneE8_1" index="1" speed="13.89" length="83.21" shape="2699.10,97.40 2698.87,14.19"/>
    </edge>
    <edge id="-gneE9" from="gneJ13" to="gneJ6" priority="1">
        <lane id="-gneE9_0" index="0" speed="8.33" length="90.29" shape="2705.27,-98.84 2705.42,-8.55"/>
        <lane id="-gneE9_1" index="1" speed="13.89" length="90.29" shape="2701.97,-98.83 2702.12,-8.54"/>
    </edge>
    <edge id="gneE2" from="gneJ4" to="gneJ5" priority="1">
        <lane id="gneE2_0" index="0" speed="8.33" length="254.83" shape="1.59,-5.25 256.43,-4.84"/>
        <lane id="gneE2_1" index="1" speed="11.11" length="254.83" shape="1.59,-1.95 256.42,-1.54"/>
        <lane id="gneE2_2" index="2" speed="13.89" length="254.83" shape="1.58,1.35 256.41,1.76"/>
    </edge>
    <edge id="gneE3" from="gneJ5" to="gneJ6" priority="1">
        <lane id="gneE3_0" index="0" speed="8.33" length="2419.89" shape="272.53,-4.83 2692.42,-5.43"/>
        <lane id="gneE3_1" index="1" speed="11.11" length="2419.89" shape="272.53,-1.53 2692.42,-2.13"/>
        <lane id="gneE3_2" index="2" speed="13.89" length="2419.89" shape="272.53,1.77 2692.43,1.17"/>
    </edge>
    <edge id="gneE4" from="gneJ6" to="gneJ7" priority="1">
        <lane id="gneE4_0" index="0" speed="8.33" length="261.93" shape="2708.57,-5.43 2970.50,-5.45"/>
        <lane id="gneE4_1" index="1" speed="11.11" length="261.93" shape="2708.57,-2.13 2970.50,-2.15"/>
        <lane id="gneE4_2" index="2" speed="13.89" length="261.93" shape="2708.57,1.17 2970.50,1.15"/>
    </edge>
    <edge id="gneE5" from="gneJ5" to="gneJ8" priority="1">
        <lane id="gneE5_0" index="0" speed="8.33" length="84.33" shape="269.39,14.79 269.19,99.12"/>
        <lane id="gneE5_1" index="1" speed="13.89" length="84.33" shape="266.09,14.78 265.89,99.11"/>
    </edge>
    <edge id="gneE6" from="gneJ5" to="gneJ9" priority="1">
        <lane id="gneE6_0" index="0" speed="8.33" length="90.73" shape="259.53,-7.95 259.64,-98.68"/>
        <lane id="gneE6_1" index="1" speed="13.89" length="90.73" shape="262.83,-7.94 262.94,-98.67"/>
    </edge>
    <edge id="gneE8" from="gneJ6" to="gneJ12" priority="1">
        <lane id="gneE8_0" index="0" speed="8.33" length="83.21" shape="2705.47,14.17 2705.70,97.39"/>
        <lane id="gneE8_1" index="1" speed="13.89" length="83.21" shape="2702.17,14.18 2702.40,97.40"/>
    </edge>
    <edge id="gneE9" from="gneJ6" to="gneJ13" priority="1">
        <lane id="gneE9_0" index="0" speed="8.33" length="90.29" shape="2695.52,-8.53 2695.37,-98.82"/>
        <lane id="gneE9_1" index="1" speed="13.89" length="90.29" shape="2698.82,-8.54 2698.67,-98.83"/>
    </edge>

    <tlLogic id="gneJ5" type="static" programID="0" offset="0">
        <phase duration="11" state="GGGGgrrrrGGGGgrrrr"/>
        <phase duration="2" state="yyyygrrrryyyygrrrr"/>
        <phase duration="3" state="rrrrGrrrrrrrrGrrrr"/>
        <phase duration="2" state="rrrryrrrrrrrryrrrr"/>
        <phase duration="11" state="rrrrrGGGgrrrrrGGGg"/>
        <phase duration="2" state="rrrrryyygrrrrryyyg"/>
        <phase duration="3" state="rrrrrrrrGrrrrrrrrG"/>
        <phase duration="2" state="rrrrrrrryrrrrrrrry"/>
    </tlLogic>
    <tlLogic id="gneJ6" type="static" programID="0" offset="0">
        <phase duration="11" state="rrrrGGGGgrrrrGGGGg"/>
        <phase duration="2" state="rrrryyyygrrrryyyyg"/>
        <phase duration="3" state="rrrrrrrrGrrrrrrrrG"/>
        <phase duration="2" state="rrrrrrrryrrrrrrrry"/>
        <phase duration="11" state="GGGgrrrrrGGGgrrrrr"/>
        <phase duration="2" state="yyygrrrrryyygrrrrr"/>
        <phase duration="3" state="rrrGrrrrrrrrGrrrrr"/>
        <phase duration="2" state="rrryrrrrrrrryrrrrr"/>
    </tlLogic>

    <junction id="gneJ12" type="dead_end" x="2700.75" y="97.40" incLanes="gneE8_0 gneE8_1" intLanes="" shape="2700.70,97.40 2694.20,97.42 2707.30,97.38 2700.80,97.40"/>
    <junction id="gneJ13" type="dead_end" x="2700.32" y="-98.83" incLanes="gneE9_0 gneE9_1" intLanes="" shape="2700.37,-98.83 2706.87,-98.84 2693.77,-98.82 2700.27,-98.83"/>
    <junction id="gneJ4" type="dead_end" x="1.58" y="3.00" incLanes="-gneE2_0 -gneE2_1 -gneE2_2" intLanes="" shape="1.58,2.95 1.60,-6.85 1.56,12.85 1.58,3.05"/>
    <junction id="gneJ5" type="traffic_light" x="264.47" y="3.42" incLanes="-gneE3_0 -gneE3_1 -gneE3_2 -gneE6_0 -gneE6_1 gneE2_0 gneE2_1 gneE2_2 -gneE5_0 -gneE5_1" intLanes=":gneJ5_0_0 :gneJ5_1_0 :gneJ5_1_1 :gneJ5_1_2 :gneJ5_18_0 :gneJ5_5_0 :gneJ5_6_0 :gneJ5_6_1 :gneJ5_19_0 :gneJ5_9_0 :gneJ5_10_0 :gneJ5_10_1 :gneJ5_10_2 :gneJ5_20_0 :gneJ5_14_0 :gneJ5_15_0 :gneJ5_15_1 :gneJ5_21_0" shape="272.54,13.27 272.53,-6.43 271.03,-7.93 257.93,-7.95 256.43,-6.44 256.40,13.26 257.89,14.76 270.99,14.79">
        <request index="0" response="000000000000000000" foes="000010000011000000" cont="0"/>
        <request index="1" response="000000000000000000" foes="111110000111000000" cont="0"/>
        <request index="2" response="000000000000000000" foes="111110000111000000" cont="0"/>
        <request index="3" response="000000000000000000" foes="111110000111000000" cont="0"/>
        <request index="4" response="000001111000000000" foes="111001111111000000" cont="1"/>
        <request index="5" response="000001110000000000" foes="100001110000000000" cont="0"/>
        <request index="6" response="000011110000011111" foes="100011110000011111" cont="0"/>
        <request index="7" response="000011110000011111" foes="100011110000011111" cont="0"/>
        <request index="8" response="011111110000011110" foes="011111110000011110" cont="1"/>
        <request index="9" response="000000000000000000" foes="011000000000010000" cont="0"/>
        <request index="10" response="000000000000000000" foes="111000000111110000" cont="0"/>
        <request index="11" response="000000000000000000" foes="111000000111110000" cont="0"/>
        <request index="12" response="000000000000000000" foes="111000000111110000" cont="0"/>
        <request index="13" response="000000000000001111" foes="111000000111001111" cont="1"/>
        <request index="14" response="000000000000001110" foes="000000000100001110" cont="0"/>
        <request index="15" response="000011111000011110" foes="000011111100011110" cont="0"/>
        <request index="16" response="000011111000011110" foes="000011111100011110" cont="0"/>
        <request index="17" response="000011110011111110" foes="000011110011111110" cont="1"/>
    </junction>
    <junction id="gneJ6" type="traffic_light" x="2700.49" y="2.82" incLanes="-gneE8_0 -gneE8_1 -gneE4_0 -gneE4_1 -gneE4_2 -gneE9_0 -gneE9_1 gneE3_0 gneE3_1 gneE3_2" intLanes=":gneJ6_0_0 :gneJ6_1_0 :gneJ6_1_1 :gneJ6_18_0 :gneJ6_4_0 :gneJ6_5_0 :gneJ6_5_1 :gneJ6_5_2 :gneJ6_19_0 :gneJ6_9_0 :gneJ6_10_0 :gneJ6_10_1 :gneJ6_20_0 :gneJ6_13_0 :gneJ6_14_0 :gneJ6_14_1 :gneJ6_14_2 :gneJ6_21_0" shape="2693.97,14.21 2707.07,14.17 2708.57,12.67 2708.57,-7.03 2707.02,-8.55 2693.92,-8.53 2692.42,-7.03 2692.43,12.67">
        <request index="0" response="000000000011100000" foes="000001000011100000" cont="0"/>
        <request index="1" response="111110000111100000" foes="111111000111100000" cont="0"/>
        <request index="2" response="111110000111100000" foes="111111000111100000" cont="0"/>
        <request index="3" response="111100111111100000" foes="111100111111100000" cont="1"/>
        <request index="4" response="000000000000000000" foes="100000110000000000" cont="0"/>
        <request index="5" response="000000000000000000" foes="100001110000001111" cont="0"/>
        <request index="6" response="000000000000000000" foes="100001110000001111" cont="0"/>
        <request index="7" response="000000000000000000" foes="100001110000001111" cont="0"/>
        <request index="8" response="011110000000000000" foes="011111110000001110" cont="1"/>
        <request index="9" response="011100000000000000" foes="011100000000001000" cont="0"/>
        <request index="10" response="111100000111110000" foes="111100000111111000" cont="0"/>
        <request index="11" response="111100000111110000" foes="111100000111111000" cont="0"/>
        <request index="12" response="111100000111100111" foes="111100000111100111" cont="1"/>
        <request index="13" response="000000000000000000" foes="000000000100000110" cont="0"/>
        <request index="14" response="000000000000000000" foes="000001111100001110" cont="0"/>
        <request index="15" response="000000000000000000" foes="000001111100001110" cont="0"/>
        <request index="16" response="000000000000000000" foes="000001111100001110" cont="0"/>
        <request index="17" response="000000000011110000" foes="000001110011111110" cont="1"/>
    </junction>
    <junction id="gneJ7" type="dead_end" x="2970.50" y="2.80" incLanes="gneE4_0 gneE4_1 gneE4_2" intLanes="" shape="2970.50,2.85 2970.50,12.65 2970.50,-7.05 2970.50,2.75"/>
    <junction id="gneJ8" type="dead_end" x="264.24" y="99.11" incLanes="gneE5_0 gneE5_1" intLanes="" shape="264.19,99.11 257.69,99.09 270.79,99.13 264.29,99.11"/>
    <junction id="gneJ9" type="dead_end" x="264.59" y="-98.67" incLanes="gneE6_0 gneE6_1" intLanes="" shape="264.64,-98.67 271.14,-98.66 258.04,-98.68 264.54,-98.67"/>

    <junction id=":gneJ5_18_0" type="internal" x="267.18" y="3.36" incLanes=":gneJ5_4_0 gneE2_0 gneE2_1 gneE2_2" intLanes=":gneJ5_6_0 :gneJ5_6_1 :gneJ5_8_0 :gneJ5_9_0 :gneJ5_10_0 :gneJ5_10_1 :gneJ5_10_2 :gneJ5_15_0 :gneJ5_15_1 :gneJ5_17_0"/>
    <junction id=":gneJ5_19_0" type="internal" x="264.42" y="0.20" incLanes=":gneJ5_8_0 -gneE5_0 -gneE5_1" intLanes=":gneJ5_1_0 :gneJ5_1_1 :gneJ5_1_2 :gneJ5_4_0 :gneJ5_10_0 :gneJ5_10_1 :gneJ5_10_2 :gneJ5_13_0 :gneJ5_14_0 :gneJ5_15_0 :gneJ5_15_1"/>
    <junction id=":gneJ5_20_0" type="internal" x="261.76" y="3.46" incLanes=":gneJ5_13_0 -gneE3_0 -gneE3_1 -gneE3_2" intLanes=":gneJ5_0_0 :gneJ5_1_0 :gneJ5_1_1 :gneJ5_1_2 :gneJ5_6_0 :gneJ5_6_1 :gneJ5_8_0 :gneJ5_15_0 :gneJ5_15_1 :gneJ5_17_0"/>
    <junction id=":gneJ5_21_0" type="internal" x="264.51" y="6.65" incLanes=":gneJ5_17_0 -gneE6_0 -gneE6_1" intLanes=":gneJ5_1_0 :gneJ5_1_1 :gneJ5_1_2 :gneJ5_4_0 :gneJ5_5_0 :gneJ5_6_0 :gneJ5_6_1 :gneJ5_10_0 :gneJ5_10_1 :gneJ5_10_2 :gneJ5_13_0"/>
    <junction id=":gneJ6_18_0" type="internal" x="2700.55" y="6.05" incLanes=":gneJ6_3_0 -gneE9_0 -gneE9_1" intLanes=":gneJ6_5_0 :gneJ6_5_1 :gneJ6_5_2 :gneJ6_8_0 :gneJ6_9_0 :gneJ6_10_0 :gneJ6_10_1 :gneJ6_14_0 :gneJ6_14_1 :gneJ6_14_2 :gneJ6_17_0"/>
    <junction id=":gneJ6_19_0" type="internal" x="2703.20" y="2.77" incLanes=":gneJ6_8_0 gneE3_0 gneE3_1 gneE3_2" intLanes=":gneJ6_1_0 :gneJ6_1_1 :gneJ6_3_0 :gneJ6_10_0 :gneJ6_10_1 :gneJ6_12_0 :gneJ6_13_0 :gneJ6_14_0 :gneJ6_14_1 :gneJ6_14_2"/>
    <junction id=":gneJ6_20_0" type="internal" x="2700.44" y="-0.42" incLanes=":gneJ6_12_0 -gneE8_0 -gneE8_1" intLanes=":gneJ6_0_0 :gneJ6_1_0 :gneJ6_1_1 :gneJ6_5_0 :gneJ6_5_1 :gneJ6_5_2 :gneJ6_8_0 :gneJ6_14_0 :gneJ6_14_1 :gneJ6_14_2 :gneJ6_17_0"/>
    <junction id=":gneJ6_21_0" type="internal" x="2697.78" y="2.87" incLanes=":gneJ6_17_0 -gneE4_0 -gneE4_1 -gneE4_2" intLanes=":gneJ6_1_0 :gneJ6_1_1 :gneJ6_3_0 :gneJ6_4_0 :gneJ6_5_0 :gneJ6_5_1 :gneJ6_5_2 :gneJ6_10_0 :gneJ6_10_1 :gneJ6_12_0"/>

    <connection from="-gneE3" to="gneE5" fromLane="0" toLane="0" via=":gneJ5_0_0" tl="gneJ5" linkIndex="0" dir="r" state="o"/>
    <connection from="-gneE3" to="-gneE2" fromLane="0" toLane="0" via=":gneJ5_1_0" tl="gneJ5" linkIndex="1" dir="s" state="o"/>
    <connection from="-gneE3" to="-gneE2" fromLane="1" toLane="1" via=":gneJ5_1_1" tl="gneJ5" linkIndex="2" dir="s" state="o"/>
    <connection from="-gneE3" to="-gneE2" fromLane="2" toLane="2" via=":gneJ5_1_2" tl="gneJ5" linkIndex="3" dir="s" state="o"/>
    <connection from="-gneE3" to="gneE6" fromLane="2" toLane="1" via=":gneJ5_4_0" tl="gneJ5" linkIndex="4" dir="l" state="o"/>
    <connection from="-gneE4" to="gneE8" fromLane="0" toLane="0" via=":gneJ6_4_0" tl="gneJ6" linkIndex="4" dir="r" state="o"/>
    <connection from="-gneE4" to="-gneE3" fromLane="0" toLane="0" via=":gneJ6_5_0" tl="gneJ6" linkIndex="5" dir="s" state="o"/>
    <connection from="-gneE4" to="-gneE3" fromLane="1" toLane="1" via=":gneJ6_5_1" tl="gneJ6" linkIndex="6" dir="s" state="o"/>
    <connection from="-gneE4" to="-gneE3" fromLane="2" toLane="2" via=":gneJ6_5_2" tl="gneJ6" linkIndex="7" dir="s" state="o"/>
    <connection from="-gneE4" to="gneE9" fromLane="2" toLane="1" via=":gneJ6_8_0" tl="gneJ6" linkIndex="8" dir="l" state="o"/>
    <connection from="-gneE5" to="-gneE2" fromLane="0" toLane="0" via=":gneJ5_14_0" tl="gneJ5" linkIndex="14" dir="r" state="o"/>
    <connection from="-gneE5" to="gneE6" fromLane="0" toLane="0" via=":gneJ5_15_0" tl="gneJ5" linkIndex="15" dir="s" state="o"/>
    <connection from="-gneE5" to="gneE6" fromLane="1" toLane="1" via=":gneJ5_15_1" tl="gneJ5" linkIndex="16" dir="s" state="o"/>
    <connection from="-gneE5" to="gneE3" fromLane="1" toLane="2" via=":gneJ5_17_0" tl="gneJ5" linkIndex="17" dir="l" state="o"/>
    <connection from="-gneE6" to="gneE3" fromLane="0" toLane="0" via=":gneJ5_5_0" tl="gneJ5" linkIndex="5" dir="r" state="o"/>
    <connection from="-gneE6" to="gneE5" fromLane="0" toLane="0" via=":gneJ5_6_0" tl="gneJ5" linkIndex="6" dir="s" state="o"/>
    <connection from="-gneE6" to="gneE5" fromLane="1" toLane="1" via=":gneJ5_6_1" tl="gneJ5" linkIndex="7" dir="s" state="o"/>
    <connection from="-gneE6" to="-gneE2" fromLane="1" toLane="2" via=":gneJ5_8_0" tl="gneJ5" linkIndex="8" dir="l" state="o"/>
    <connection from="-gneE8" to="-gneE3" fromLane="0" toLane="0" via=":gneJ6_0_0" tl="gneJ6" linkIndex="0" dir="r" state="o"/>
    <connection from="-gneE8" to="gneE9" fromLane="0" toLane="0" via=":gneJ6_1_0" tl="gneJ6" linkIndex="1" dir="s" state="o"/>
    <connection from="-gneE8" to="gneE9" fromLane="1" toLane="1" via=":gneJ6_1_1" tl="gneJ6" linkIndex="2" dir="s" state="o"/>
    <connection from="-gneE8" to="gneE4" fromLane="1" toLane="2" via=":gneJ6_3_0" tl="gneJ6" linkIndex="3" dir="l" state="o"/>
    <connection from="-gneE9" to="gneE4" fromLane="0" toLane="0" via=":gneJ6_9_0" tl="gneJ6" linkIndex="9" dir="r" state="o"/>
    <connection from="-gneE9" to="gneE8" fromLane="0" toLane="0" via=":gneJ6_10_0" tl="gneJ6" linkIndex="10" dir="s" state="o"/>
    <connection from="-gneE9" to="gneE8" fromLane="1" toLane="1" via=":gneJ6_10_1" tl="gneJ6" linkIndex="11" dir="s" state="o"/>
    <connection from="-gneE9" to="-gneE3" fromLane="1" toLane="2" via=":gneJ6_12_0" tl="gneJ6" linkIndex="12" dir="l" state="o"/>
    <connection from="gneE2" to="gneE6" fromLane="0" toLane="0" via=":gneJ5_9_0" tl="gneJ5" linkIndex="9" dir="r" state="o"/>
    <connection from="gneE2" to="gneE3" fromLane="0" toLane="0" via=":gneJ5_10_0" tl="gneJ5" linkIndex="10" dir="s" state="o"/>
    <connection from="gneE2" to="gneE3" fromLane="1" toLane="1" via=":gneJ5_10_1" tl="gneJ5" linkIndex="11" dir="s" state="o"/>
    <connection from="gneE2" to="gneE3" fromLane="2" toLane="2" via=":gneJ5_10_2" tl="gneJ5" linkIndex="12" dir="s" state="o"/>
    <connection from="gneE2" to="gneE5" fromLane="2" toLane="1" via=":gneJ5_13_0" tl="gneJ5" linkIndex="13" dir="l" state="o"/>
    <connection from="gneE3" to="gneE9" fromLane="0" toLane="0" via=":gneJ6_13_0" tl="gneJ6" linkIndex="13" dir="r" state="o"/>
    <connection from="gneE3" to="gneE4" fromLane="0" toLane="0" via=":gneJ6_14_0" tl="gneJ6" linkIndex="14" dir="s" state="o"/>
    <connection from="gneE3" to="gneE4" fromLane="1" toLane="1" via=":gneJ6_14_1" tl="gneJ6" linkIndex="15" dir="s" state="o"/>
    <connection from="gneE3" to="gneE4" fromLane="2" toLane="2" via=":gneJ6_14_2" tl="gneJ6" linkIndex="16" dir="s" state="o"/>
    <connection from="gneE3" to="gneE8" fromLane="2" toLane="1" via=":gneJ6_17_0" tl="gneJ6" linkIndex="17" dir="l" state="o"/>

    <connection from=":gneJ5_0" to="gneE5" fromLane="0" toLane="0" dir="s" state="M"/>
    <connection from=":gneJ5_1" to="-gneE2" fromLane="0" toLane="0" dir="s" state="M"/>
    <connection from=":gneJ5_1" to="-gneE2" fromLane="1" toLane="1" dir="s" state="M"/>
    <connection from=":gneJ5_1" to="-gneE2" fromLane="2" toLane="2" dir="s" state="M"/>
    <connection from=":gneJ5_4" to="gneE6" fromLane="0" toLane="1" via=":gneJ5_18_0" dir="s" state="m"/>
    <connection from=":gneJ5_18" to="gneE6" fromLane="0" toLane="1" dir="s" state="M"/>
    <connection from=":gneJ5_5" to="gneE3" fromLane="0" toLane="0" dir="s" state="M"/>
    <connection from=":gneJ5_6" to="gneE5" fromLane="0" toLane="0" dir="s" state="M"/>
    <connection from=":gneJ5_6" to="gneE5" fromLane="1" toLane="1" dir="s" state="M"/>
    <connection from=":gneJ5_8" to="-gneE2" fromLane="0" toLane="2" via=":gneJ5_19_0" dir="s" state="m"/>
    <connection from=":gneJ5_19" to="-gneE2" fromLane="0" toLane="2" dir="s" state="M"/>
    <connection from=":gneJ5_9" to="gneE6" fromLane="0" toLane="0" dir="s" state="M"/>
    <connection from=":gneJ5_10" to="gneE3" fromLane="0" toLane="0" dir="s" state="M"/>
    <connection from=":gneJ5_10" to="gneE3" fromLane="1" toLane="1" dir="s" state="M"/>
    <connection from=":gneJ5_10" to="gneE3" fromLane="2" toLane="2" dir="s" state="M"/>
    <connection from=":gneJ5_13" to="gneE5" fromLane="0" toLane="1" via=":gneJ5_20_0" dir="s" state="m"/>
    <connection from=":gneJ5_20" to="gneE5" fromLane="0" toLane="1" dir="s" state="M"/>
    <connection from=":gneJ5_14" to="-gneE2" fromLane="0" toLane="0" dir="s" state="M"/>
    <connection from=":gneJ5_15" to="gneE6" fromLane="0" toLane="0" dir="s" state="M"/>
    <connection from=":gneJ5_15" to="gneE6" fromLane="1" toLane="1" dir="s" state="M"/>
    <connection from=":gneJ5_17" to="gneE3" fromLane="0" toLane="2" via=":gneJ5_21_0" dir="s" state="m"/>
    <connection from=":gneJ5_21" to="gneE3" fromLane="0" toLane="2" dir="s" state="M"/>
    <connection from=":gneJ6_0" to="-gneE3" fromLane="0" toLane="0" dir="s" state="M"/>
    <connection from=":gneJ6_1" to="gneE9" fromLane="0" toLane="0" dir="s" state="M"/>
    <connection from=":gneJ6_1" to="gneE9" fromLane="1" toLane="1" dir="s" state="M"/>
    <connection from=":gneJ6_3" to="gneE4" fromLane="0" toLane="2" via=":gneJ6_18_0" dir="s" state="m"/>
    <connection from=":gneJ6_18" to="gneE4" fromLane="0" toLane="2" dir="s" state="M"/>
    <connection from=":gneJ6_4" to="gneE8" fromLane="0" toLane="0" dir="s" state="M"/>
    <connection from=":gneJ6_5" to="-gneE3" fromLane="0" toLane="0" dir="s" state="M"/>
    <connection from=":gneJ6_5" to="-gneE3" fromLane="1" toLane="1" dir="s" state="M"/>
    <connection from=":gneJ6_5" to="-gneE3" fromLane="2" toLane="2" dir="s" state="M"/>
    <connection from=":gneJ6_8" to="gneE9" fromLane="0" toLane="1" via=":gneJ6_19_0" dir="s" state="m"/>
    <connection from=":gneJ6_19" to="gneE9" fromLane="0" toLane="1" dir="s" state="M"/>
    <connection from=":gneJ6_9" to="gneE4" fromLane="0" toLane="0" dir="s" state="M"/>
    <connection from=":gneJ6_10" to="gneE8" fromLane="0" toLane="0" dir="s" state="M"/>
    <connection from=":gneJ6_10" to="gneE8" fromLane="1" toLane="1" dir="s" state="M"/>
    <connection from=":gneJ6_12" to="-gneE3" fromLane="0" toLane="2" via=":gneJ6_20_0" dir="s" state="m"/>
    <connection from=":gneJ6_20" to="-gneE3" fromLane="0" toLane="2" dir="s" state="M"/>
    <connection from=":gneJ6_13" to="gneE9" fromLane="0" toLane="0" dir="s" state="M"/>
    <connection from=":gneJ6_14" to="gneE4" fromLane="0" toLane="0" dir="s" state="M"/>
    <connection from=":gneJ6_14" to="gneE4" fromLane="1" toLane="1" dir="s" state="M"/>
    <connection from=":gneJ6_14" to="gneE4" fromLane="2" toLane="2" dir="s" state="M"/>