<routes>
	<vType id="CarA" accel="2.6" decel="4.9" carFollowModel="Wiedemann" security="1.0" length="5" minGap="5" maxSpeed="17.0"/>
	<vType id="CarB" accel="2.6" decel="5.3" carFollowModel="Wiedemann" security="1.0" length="5" minGap="5" maxSpeed="18.5"/>
	<vType id="CarC" accel="2.6" decel="5.1" carFollowModel="Wiedemann" security="1.0" length="5" minGap="5" maxSpeed="20.0"/>
	<vType id="CarD" accel="2.6" decel="5.4" carFollowModel="Wiedemann" security="1.0" length="5" minGap="5" maxSpeed="21.0"/>
	<vType id="CarE" accel="2.6" decel="5.2" carFollowModel="Wiedemann" security="1.0" length="5" minGap="5" maxSpeed="22.0"/>
	<vType id="CarF" accel="2.6" decel="5.6" carFollowModel="Wiedemann" security="1.0" length="5" minGap="5" maxSpeed="23.5"/>
	<vType id="CarG" accel="2.6" decel="5.8" carFollowModel="Wiedemann" security="1.0" length="5" minGap="5" maxSpeed="25.0"/>
	<route id="route0" edges="E1 E2"></route>
	<route id="route1" edges="-E2 -E1"></route>
	<!-- CarA: "0,0,1"=blue; CarB: "0,1,0"=green; CarC: "0,1,1"=cyan; CarD: "1,0,0"=red; CarE: "1,0,1"=magenta; CarF: "1,1,0"=yellow; CarG: "1,1,1"=white -->
	<vehicle id="veh00" type="CarF" route="route0" depart="0" departSpeed="12" color="1,1,0"/>
	<vehicle id="veh01" type="CarG" route="route0" depart="2" departSpeed="12" color="1,1,1"/>
	<vehicle id="veh02" type="CarD" route="route0" depart="5" departSpeed="12" color="1,0,0"/>
	<vehicle id="veh03" type="CarC" route="route0" depart="6" departSpeed="12" color="0,1,1"/>
	<vehicle id="veh04" type="CarD" route="route0" depart="9" departSpeed="12" color="1,0,0"/>
	<vehicle id="veh05" type="CarD" route="route1" depart="10" departSpeed="12" color="1,0,0"/>
	<vehicle id="veh06" type="CarC" route="route0" depart="11" departSpeed="12" color="0,1,1"/>
	<vehicle id="veh07" type="CarD" route="route1" depart="13" departSpeed="12" color="1,0,0"/>
	<vehicle id="veh08" type="CarE" route="route1" depart="15" departSpeed="12" color="1,0,1"/>
	<vehicle id="veh09" type="CarC" route="route1" depart="17" departSpeed="12" color="0,1,1"/>
	<vehicle id="veh10" type="CarE" route="route0" depart="20" departSpeed="12" color="1,0,1"/>
	<vehicle id="veh11" type="CarC" route="route1" depart="22" departSpeed="12" color="0,1,1"/>
	<vehicle id="veh12" type="CarD" route="route0" depart="22" departSpeed="12" color="1,0,0"/>
	<vehicle id="veh13" type="CarB" route="route1" depart="23" departSpeed="12" color="0,1,0"/>
	<vehicle id="veh14" type="CarC" route="route0" depart="24" departSpeed="12" color="0,1,1"/>
	<vehicle id="veh15" type="CarC" route="route1" depart="29" departSpeed="12" color="0,1,1"/>
	<vehicle id="veh16" type="CarD" route="route1" depart="33" departSpeed="12" color="1,0,0"/>
	<vehicle id="veh17" type="CarC" route="route0" depart="33" departSpeed="12" color="0,1,1"/>
	<vehicle id="veh18" type="CarB" route="route0" depart="35" departSpeed="12" color="0,1,0"/>
	<vehicle id="veh19" type="CarD" route="route1" depart="38" departSpeed="12" color="1,0,0"/>
	<vehicle id="veh20" type="CarA" route="route0" depart="38" departSpeed="12" color="0,0,1"/>
	<vehicle id="veh21" type="CarD" route="route1" depart="41" departSpeed="12" color="1,0,0"/>
	<vehicle id="veh22" type="CarD" route="route1" depart="43" departSpeed="12" color="1,0,0"/>
	<vehicle id="veh23" type="CarE" route="route1" depart="51" departSpeed="12" color="1,0,1"/>
	<vehicle id="veh24" type="CarF" route="route0" depart="67" departSpeed="12" color="1,1,0"/>
	<vehicle id="veh25" type="CarG" route="route0" depart="77" departSpeed="12" color="1,1,1"/>
	<vehicle id="veh26" type="CarE" route="route0" depart="79" departSpeed="12" color="1,0,1"/>
	<vehicle id="veh27" type="CarG" route="route1" depart="79" departSpeed="12" color="1,1,1"/>
	<vehicle id="veh28" type="CarC" route="route0" depart="83" departSpeed="12" color="0,1,1"/>
	<vehicle id="veh29" type="CarD" route="route0" depart="87" departSpeed="12" color="1,0,0"/>
	<vehicle id="veh30" type="CarE" route="route1" depart="87" departSpeed="12" color="1,0,1"/>
	<vehicle id="veh31" type="CarC" route="route0" depart="90" departSpeed="12" color="0,1,1"/>
	<vehicle id="veh32" type="CarD" route="route1" depart="93" departSpeed="12" color="1,0,0"/>
	<vehicle id="veh33" type="CarE" route="route1" depart="95" departSpeed="12" color="1,0,1"/>
	<vehicle id="veh34" type="CarC" route="route1" depart="98" departSpeed="12" color="0,1,1"/>
	<vehicle id="veh35" type="CarE" route="route0" depart="100" departSpeed="12" color="1,0,1"/>
	<vehicle id="veh36" type="CarC" route="route1" depart="102" departSpeed="12" color="0,1,1"/>
	<vehicle id="veh37" type="CarD" route="route0" depart="102" departSpeed="12" color="1,0,0"/>
	<vehicle id="veh38" type="CarC" route="route1" depart="103" departSpeed="12" color="0,1,1"/>
	<vehicle id="veh39" type="CarC" route="route0" depart="104" departSpeed="12" color="0,1,1"/>
	<vehicle id="veh40" type="CarC" route="route1" depart="107" departSpeed="12" color="0,1,1"/>
	<vehicle id="veh41" type="CarD" route="route1" depart="111" departSpeed="12" color="1,0,0"/>
	<vehicle id="veh42" type="CarD" route="route0" depart="112" departSpeed="12" color="1,0,0"/>
	<vehicle id="veh43" type="CarC" route="route0" depart="114" departSpeed="12" color="0,1,1"/>
	<vehicle id="veh44" type="CarD" route="route1" depart="114" departSpeed="12" color="1,0,0"/>
	<vehicle id="veh45" type="CarE" route="route0" depart="120" departSpeed="12" color="1,0,1"/>
	<vehicle id="veh46" type="CarD" route="route1" depart="120" departSpeed="12" color="1,0,0"/>
	<vehicle id="veh47" type="CarD" route="route1" depart="122" departSpeed="12" color="1,0,0"/>
	<vehicle id="veh48" type="CarE" route="route1" depart="125" departSpeed="12" color="1,0,1"/>
	<vehicle id="veh49" type="CarF" route="route0" depart="126" departSpeed="12" color="1,1,0"/>
	<vehicle id="veh50" type="CarF" route="route0" depart="130" departSpeed="12" color="1,1,0"/>
	<vehicle id="veh51" type="CarG" route="route1" depart="142" departSpeed="12" color="1,1,1"/>
	<vehicle id="veh52" type="CarD" route="route0" depart="145" departSpeed="12" color="1,0,0"/>
	<vehicle id="veh53" type="CarC" route="route0" depart="146" departSpeed="12" color="0,1,1"/>
	<vehicle id="veh54" type="CarD" route="route0" depart="149" departSpeed="12" color="1,0,0"/>
	<vehicle id="veh55" type="CarF" route="route1" depart="150" departSpeed="12" color="1,1,0"/>
	<vehicle id="veh56" type="CarC" route="route0" depart="151" departSpeed="12" color="0,1,1"/>
	<vehicle id="veh57" type="CarE" route="route1" depart="153" departSpeed="12" color="1,0,1"/>
	<vehicle id="veh58" type="CarE" route="route1" depart="155" departSpeed="12" color="1,0,1"/>
	<vehicle id="veh59" type="CarC" route="route1" depart="157" departSpeed="12" color="0,1,1"/>
	<vehicle id="veh60" type="CarE" route="route0" depart="160" departSpeed="12" color="1,0,1"/>
	<vehicle id="veh61" type="CarD" route="route1" depart="162" departSpeed="12" color="1,0,0"/>
	<vehicle id="veh62" type="CarD" route="route0" depart="162" departSpeed="12" color="1,0,0"/>
	<vehicle id="veh63" type="CarB" route="route1" depart="163" departSpeed="12" color="0,1,0"/>
	<vehicle id="veh64" type="CarC" route="route0" depart="164" departSpeed="12" color="0,1,1"/>
	<vehicle id="veh65" type="CarC" route="route1" depart="169" departSpeed="12" color="0,1,1"/>
	<vehicle id="veh66" type="CarD" route="route1" depart="173" departSpeed="12" color="1,0,0"/>
	<vehicle id="veh67" type="CarC" route="route0" depart="173" departSpeed="12" color="0,1,1"/>
	<vehicle id="veh68" type="CarB" route="route0" depart="175" departSpeed="12" color="0,1,0"/>
	<vehicle id="veh69" type="CarD" route="route1" depart="178" departSpeed="12" color="1,0,0"/>
	<vehicle id="veh70" type="CarA" route="route0" depart="178" departSpeed="12" color="0,0,1"/>
	<vehicle id="veh71" type="CarD" route="route1" depart="181" departSpeed="12" color="1,0,0"/>
	<vehicle id="veh72" type="CarD" route="route1" depart="183" departSpeed="12" color="1,0,0"/>
	<vehicle id="veh73" type="CarD" route="route1" depart="188" departSpeed="12" color="1,0,0"/>
	<vehicle id="veh74" type="CarF" route="route0" depart="207" departSpeed="12" color="1,1,0"/>
	<vehicle id="veh75" type="CarG" route="route0" depart="213" departSpeed="12" color="1,1,1"/>
	<vehicle id="veh76" type="CarE" route="route0" depart="215" departSpeed="12" color="1,0,1"/>
	<vehicle id="veh77" type="CarG" route="route1" depart="215" departSpeed="12" color="1,1,1"/>
	<vehicle id="veh78" type="CarC" route="route0" depart="223" departSpeed="12" color="0,1,1"/>
	<vehicle id="veh79" type="CarD" route="route0" depart="227" departSpeed="12" color="1,0,0"/>
	<vehicle id="veh80" type="CarE" route="route1" depart="227" departSpeed="12" color="1,0,1"/>
	<vehicle id="veh81" type="CarC" route="route0" depart="230" departSpeed="12" color="0,1,1"/>
	<vehicle id="veh82" type="CarD" route="route1" depart="233" departSpeed="12" color="1,0,0"/>
	<vehicle id="veh83" type="CarE" route="route1" depart="235" departSpeed="12" color="1,0,1"/>
	<vehicle id="veh84" type="CarC" route="route1" depart="238" departSpeed="12" color="0,1,1"/>
	<vehicle id="veh85" type="CarE" route="route0" depart="240" departSpeed="12" color="1,0,1"/>
	<vehicle id="veh86" type="CarC" route="route1" depart="242" departSpeed="12" color="0,1,1"/>
	<vehicle id="veh87" type="CarD" route="route0" depart="242" departSpeed="12" color="1,0,0"/>
	<vehicle id="veh88" type="CarC" route="route1" depart="243" departSpeed="12" color="0,1,1"/>
	<vehicle id="veh89" type="CarC" route="route0" depart="244" departSpeed="12" color="0,1,1"/>
	<vehicle id="veh90" type="CarC" route="route1" depart="247" departSpeed="12" color="0,1,1"/>
	<vehicle id="veh91" type="CarD" route="route1" depart="251" departSpeed="12" color="1,0,0"/>
	<vehicle id="veh92" type="CarD" route="route0" depart="252" departSpeed="12" color="1,0,0"/>
	<vehicle id="veh93" type="CarC" route="route0" depart="254" departSpeed="12" color="0,1,1"/>
	<vehicle id="veh94" type="CarE" route="route1" depart="254" departSpeed="12" color="1,0,1"/>
	<vehicle id="veh95" type="CarE" route="route0" depart="261" departSpeed="12" color="1,0,1"/>
	<vehicle id="veh96" type="CarF" route="route0" depart="267" departSpeed="12" color="1,1,0"/>
	<vehicle id="veh97" type="CarG" route="route1" depart="267" departSpeed="12" color="1,1,1"/>
	<vehicle id="veh98" type="CarG" route="route1" depart="269" departSpeed="12" color="1,1,1"/>
	<vehicle id="veh99" type="CarE" route="route0" depart="270" departSpeed="12" color="1,0,1"/>
	<vehicle id="veh100" type="CarF" route="route0" depart="280" departSpeed="12" color="1,1,0"/>
	<vehicle id="veh101" type="CarG" route="route0" depart="282" departSpeed="12" color="1,1,1"/>
	<vehicle id="veh102" type="CarD" route="route0" depart="285" departSpeed="12" color="1,0,0"/>
	<vehicle id="veh103" type="CarC" route="route0" depart="286" departSpeed="12" color="0,1,1"/>
	<vehicle id="veh104" type="CarD" route="route0" depart="289" departSpeed="12" color="1,0,0"/>
	<vehicle id="veh105" type="CarD" route="route1" depart="290" departSpeed="12" color="1,0,0"/>
	<vehicle id="veh106" type="CarC" route="route0" depart="291" departSpeed="12" color="0,1,1"/>
	<vehicle id="veh107" type="CarD" route="route1" depart="293" departSpeed="12" color="1,0,0"/>
	<vehicle id="veh108" type="CarE" route="route1" depart="295" departSpeed="12" color="1,0,1"/>
	<vehicle id="veh109" type="CarC" route="route1" depart="297" departSpeed="12" color="0,1,1"/>
	<vehicle id="veh110" type="CarE" route="route0" depart="300" departSpeed="12" color="1,0,1"/>
	<vehicle id="veh111" type="CarC" route="route1" depart="302" departSpeed="12" color="0,1,1"/>
	<vehicle id="veh112" type="CarD" route="route0" depart="302" departSpeed="12" color="1,0,0"/>
	<vehicle id="veh113" type="CarB" route="route1" depart="303" departSpeed="12" color="0,1,0"/>
	<vehicle id="veh114" type="CarC" route="route0" depart="304" departSpeed="12" color="0,1,1"/>
	<vehicle id="veh115" type="CarC" route="route1" depart="309" departSpeed="12" color="0,1,1"/>
	<vehicle id="veh116" type="CarD" route="route1" depart="313" departSpeed="12" color="1,0,0"/>
	<vehicle id="veh117" type="CarC" route="route0" depart="313" departSpeed="12" color="0,1,1"/>
	<vehicle id="veh118" type="CarB" route="route0" depart="315" departSpeed="12" color="0,1,0"/>
	<vehicle id="veh119" type="CarD" route="route1" depart="318" departSpeed="12" color="1,0,0"/>
	<vehicle id="veh120" type="CarA" route="route0" depart="318" departSpeed="12" color="0,0,1"/>
	<vehicle id="veh121" type="CarD" route="route1" depart="321" departSpeed="12" color="1,0,0"/>
	<vehicle id="veh122" type="CarD" route="route1" depart="323" departSpeed="12" color="1,0,0"/>
	<vehicle id="veh123" type="CarE" route="route1" depart="331" departSpeed="12" color="1,0,1"/>
	<vehicle id="veh124" type="CarF" route="route0" depart="337" departSpeed="12" color="1,1,0"/>
	<vehicle id="veh125" type="CarG" route="route0" depart="347" departSpeed="12" color="1,1,1"/>
	<vehicle id="veh126" type="CarE" route="route0" depart="349" departSpeed="12" color="1,0,1"/>
	<vehicle id="veh127" type="CarG" route="route1" depart="349" departSpeed="12" color="1,1,1"/>
	<vehicle id="veh128" type="CarC" route="route0" depart="353" departSpeed="12" color="0,1,1"/>
	<vehicle id="veh129" type="CarD" route="route0" depart="357" departSpeed="12" color="1,0,0"/>
	<vehicle id="veh130" type="CarE" route="route1" depart="357" departSpeed="12" color="1,0,1"/>
	<vehicle id="veh131" type="CarC" route="route0" depart="360" departSpeed="12" color="0,1,1"/>
	<vehicle id="veh132" type="CarD" route="route1" depart="363" departSpeed="12" color="1,0,0"/>
	<vehicle id="veh133" type="CarE" route="route1" depart="365" departSpeed="12" color="1,0,1"/>
	<vehicle id="veh134" type="CarC" route="route1" depart="368" departSpeed="12" color="0,1,1"/>
	<vehicle id="veh135" type="CarE" route="route0" depart="370" departSpeed="12" color="1,0,1"/>
	<vehicle id="veh136" type="CarC" route="route1" depart="372" departSpeed="12" color="0,1,1"/>
	<vehicle id="veh137" type="CarD" route="route0" depart="372" departSpeed="12" color="1,0,0"/>
	<vehicle id="veh138" type="CarC" route="route1" depart="373" departSpeed="12" color="0,1,1"/>
	<vehicle id="veh139" type="CarC" route="route0" depart="374" departSpeed="12" color="0,1,1"/>
	<vehicle id="veh140" type="CarC" route="route1" depart="377" departSpeed="12" color="0,1,1"/>
	<vehicle id="veh141" type="CarD" route="route1" depart="381" departSpeed="12" color="1,0,0"/>
	<vehicle id="veh142" type="CarD" route="route0" depart="382" departSpeed="12" color="1,0,0"/>
	<vehicle id="veh143" type="CarC" route="route0" depart="384" departSpeed="12" color="0,1,1"/>
	<vehicle id="veh144" type="CarD" route="route1" depart="384" departSpeed="12" color="1,0,0"/>
	<vehicle id="veh145" type="CarE" route="route0" depart="390" departSpeed="12" color="1,0,1"/>
	<vehicle id="veh146" type="CarD" route="route1" depart="390" departSpeed="12" color="1,0,0"/>
	<vehicle id="veh147" type="CarD" route="route1" depart="392" departSpeed="12" color="1,0,0"/>
	<vehicle id="veh148" type="CarE" route="route1" depart="395" departSpeed="12" color="1,0,1"/>
	<vehicle id="veh149" type="CarF" route="route0" depart="396" departSpeed="12" color="1,1,0"/>
	<vehicle id="veh150" type="CarF" route="route0" depart="400" departSpeed="12" color="1,1,0"/>
	<vehicle id="veh151" type="CarG" route="route1" depart="412" departSpeed="12" color="1,1,1"/>
	<vehicle id="veh152" type="CarD" route="route0" depart="415" departSpeed="12" color="1,0,0"/>
	<vehicle id="veh153" type="CarC" route="route0" depart="416" departSpeed="12" color="0,1,1"/>
	<vehicle id="veh154" type="CarD" route="route0" depart="419" departSpeed="12" color="1,0,0"/>
	<vehicle id="veh155" type="CarF" route="route1" depart="420" departSpeed="12" color="1,1,0"/>
	<vehicle id="veh156" type="CarC" route="route0" depart="421" departSpeed="12" color="0,1,1"/>
	<vehicle id="veh157" type="CarE" route="route1" depart="423" departSpeed="12" color="1,0,1"/>
	<vehicle id="veh158" type="CarE" route="route1" depart="425" departSpeed="12" color="1,0,1"/>
	<vehicle id="veh159" type="CarC" route="route1" depart="427" departSpeed="12" color="0,1,1"/>
	<vehicle id="veh160" type="CarE" route="route0" depart="430" departSpeed="12" color="1,0,1"/>
	<vehicle id="veh161" type="CarD" route="route1" depart="432" departSpeed="12" color="1,0,0"/>
	<vehicle id="veh162" type="CarD" route="route0" depart="432" departSpeed="12" color="1,0,0"/>
	<vehicle id="veh163" type="CarB" route="route1" depart="433" departSpeed="12" color="0,1,0"/>
	<vehicle id="veh164" type="CarC" route="route0" depart="434" departSpeed="12" color="0,1,1"/>
	<vehicle id="veh165" type="CarC" route="route1" depart="439" departSpeed="12" color="0,1,1"/>
	<vehicle id="veh166" type="CarD" route="route1" depart="443" departSpeed="12" color="1,0,0"/>
	<vehicle id="veh167" type="CarC" route="route0" depart="443" departSpeed="12" color="0,1,1"/>
	<vehicle id="veh168" type="CarB" route="route0" depart="445" departSpeed="12" color="0,1,0"/>
	<vehicle id="veh169" type="CarD" route="route1" depart="448" departSpeed="12" color="1,0,0"/>
	<vehicle id="veh170" type="CarA" route="route0" depart="448" departSpeed="12" color="0,0,1"/>
	<vehicle id="veh171" type="CarD" route="route1" depart="451" departSpeed="12" color="1,0,0"/>
	<vehicle id="veh172" type="CarD" route="route1" depart="453" departSpeed="12" color="1,0,0"/>
	<vehicle id="veh173" type="CarD" route="route1" depart="458" departSpeed="12" color="1,0,0"/>
	<vehicle id="veh174" type="CarF" route="route0" depart="467" departSpeed="12" color="1,1,0"/>
	<vehicle id="veh175" type="CarG" route="route0" depart="473" departSpeed="12" color="1,1,1"/>
	<vehicle id="veh176" type="CarE" route="route0" depart="475" departSpeed="12" color="1,0,1"/>
	<vehicle id="veh177" type="CarG" route="route1" depart="475" departSpeed="12" color="1,1,1"/>
	<vehicle id="veh178" type="CarC" route="route0" depart="483" departSpeed="12" color="0,1,1"/>
	<vehicle id="veh179" type="CarD" route="route0" depart="487" departSpeed="12" color="1,0,0"/>
	<vehicle id="veh180" type="CarE" route="route1" depart="487" departSpeed="12" color="1,0,1"/>
	<vehicle id="veh181" type="CarC" route="route0" depart="490" departSpeed="12" color="0,1,1"/>
	<vehicle id="veh182" type="CarD" route="route1" depart="493" departSpeed="12" color="1,0,0"/>
	<vehicle id="veh183" type="CarE" route="route1" depart="495" departSpeed="12" color="1,0,1"/>
	<vehicle id="veh184" type="CarC" route="route1" depart="498" departSpeed="12" color="0,1,1"/>
	<vehicle id="veh185" type="CarE" route="route0" depart="500" departSpeed="12" color="1,0,1"/>
	<vehicle id="veh186" type="CarC" route="route1" depart="502" departSpeed="12" color="0,1,1"/>
	<vehicle id="veh187" type="CarD" route="route0" depart="502" departSpeed="12" color="1,0,0"/>
	<vehicle id="veh188" type="CarC" route="route1" depart="503" departSpeed="12" color="0,1,1"/>
	<vehicle id="veh189" type="CarC" route="route0" depart="504" departSpeed="12" color="0,1,1"/>
	<vehicle id="veh190" type="CarC" route="route1" depart="507" departSpeed="12" color="0,1,1"/>
	<vehicle id="veh191" type="CarD" route="route1" depart="511" departSpeed="12" color="1,0,0"/>
	<vehicle id="veh192" type="CarD" route="route0" depart="512" departSpeed="12" color="1,0,0"/>
	<vehicle id="veh193" type="CarC" route="route0" depart="514" departSpeed="12" color="0,1,1"/>
	<vehicle id="veh194" type="CarE" route="route1" depart="514" departSpeed="12" color="1,0,1"/>
	<vehicle id="veh195" type="CarE" route="route0" depart="521" departSpeed="12" color="1,0,1"/>
	<vehicle id="veh196" type="CarF" route="route0" depart="527" departSpeed="12" color="1,1,0"/>
	<vehicle id="veh197" type="CarG" route="route1" depart="527" departSpeed="12" color="1,1,1"/>
	<vehicle id="veh198" type="CarG" route="route1" depart="529" departSpeed="12" color="1,1,1"/>
	<vehicle id="veh199" type="CarE" route="route0" depart="530" departSpeed="12" color="1,0,1"/>
	<vehicle id="veh200" type="CarF" route="route0" depart="540" departSpeed="12" color="1,1,0"/>
	<vehicle id="veh201" type="CarG" route="route0" depart="542" departSpeed="12" color="1,1,1"/>
	<vehicle id="veh202" type="CarD" route="route0" depart="545" departSpeed="12" color="1,0,0"/>
	<vehicle id="veh203" type="CarC" route="route0" depart="546" departSpeed="12" color="0,1,1"/>
	<vehicle id="veh204" type="CarD" route="route0" depart="549" departSpeed="12" color="1,0,0"/>
	<vehicle id="veh205" type="CarD" route="route1" depart="550" departSpeed="12" color="1,0,0"/>
	<vehicle id="veh206" type="CarC" route="route0" depart="551" departSpeed="12" color="0,1,1"/>
	<vehicle id="veh207" type="CarD" route="route1" depart="553" departSpeed="12" color="1,0,0"/>
	<vehicle id="veh208" type="CarE" route="route1" depart="555" departSpeed="12" color="1,0,1"/>
	<vehicle id="veh209" type="CarC" route="route1" depart="557" departSpeed="12" color="0,1,1"/>
	<vehicle id="veh210" type="CarE" route="route0" depart="560" departSpeed="12" color="1,0,1"/>
	<vehicle id="veh211" type="CarC" route="route1" depart="562" departSpeed="12" color="0,1,1"/>
	<vehicle id="veh212" type="CarD" route="route0" depart="562" departSpeed="12" color="1,0,0"/>
	<vehicle id="veh213" type="CarB" route="route1" depart="563" departSpeed="12" color="0,1,0"/>
	<vehicle id="veh214" type="CarC" route="route0" depart="564" departSpeed="12" color="0,1,1"/>
	<vehicle id="veh215" type="CarC" route="route1" depart="569" departSpeed="12" color="0,1,1"/>
	<vehicle id="veh216" type="CarD" route="route1" depart="573" departSpeed="12" color="1,0,0"/>
	<vehicle id="veh217" type="CarC" route="route0" depart="573" departSpeed="12" color="0,1,1"/>
	<vehicle id="veh218" type="CarB" route="route0" depart="575" departSpeed="12" color="0,1,0"/>
	<vehicle id="veh219" type="CarD" route="route1" depart="578" departSpeed="12" color="1,0,0"/>
	<vehicle id="veh220" type="CarA" route="route0" depart="578" departSpeed="12" color="0,0,1"/>
	<vehicle id="veh221" type="CarD" route="route1" depart="581" departSpeed="12" color="1,0,0"/>
	<vehicle id="veh222" type="CarD" route="route1" depart="583" departSpeed="12" color="1,0,0"/>
	<vehicle id="veh223" type="CarE" route="route1" depart="591" departSpeed="12" color="1,0,1"/>
	<vehicle id="veh224" type="CarF" route="route0" depart="597" departSpeed="12" color="1,1,0"/>
	<vehicle id="veh225" type="CarG" route="route0" depart="607" departSpeed="12" color="1,1,1"/>
	<vehicle id="veh226" type="CarE" route="route0" depart="609" departSpeed="12" color="1,0,1"/>
	<vehicle id="veh227" type="CarG" route="route1" depart="609" departSpeed="12" color="1,1,1"/>
	<vehicle id="veh228" type="CarC" route="route0" depart="613" departSpeed="12" color="0,1,1"/>
	<vehicle id="veh229" type="CarD" route="route0" depart="617" departSpeed="12" color="1,0,0"/>
	<vehicle id="veh230" type="CarE" route="route1" depart="617" departSpeed="12" color="1,0,1"/>
	<vehicle id="veh231" type="CarC" route="route0" depart="620" departSpeed="12" color="0,1,1"/>
	<vehicle id="veh232" type="CarD" route="route1" depart="623" departSpeed="12" color="1,0,0"/>
	<vehicle id="veh233" type="CarE" route="route1" depart="625" departSpeed="12" color="1,0,1"/>
	<vehicle id="veh234" type="CarC" route="route1" depart="628" departSpeed="12" color="0,1,1"/>
	<vehicle id="veh235" type="CarE" route="route0" depart="640" departSpeed="12" color="1,0,1"/>
	<vehicle id="veh236" type="CarC" route="route1" depart="642" departSpeed="12" color="0,1,1"/>
	<vehicle id="veh237" type="CarD" route="route0" depart="642" departSpeed="12" color="1,0,0"/>
	<vehicle id="veh238" type="CarC" route="route1" depart="643" departSpeed="12" color="0,1,1"/>
	<vehicle id="veh239" type="CarC" route="route0" depart="644" departSpeed="12" color="0,1,1"/>
	<vehicle id="veh240" type="CarC" route="route1" depart="647" departSpeed="12" color="0,1,1"/>
	<vehicle id="veh241" type="CarD" route="route1" depart="651" departSpeed="12" color="1,0,0"/>
	<vehicle id="veh242" type="CarD" route="route0" depart="652" departSpeed="12" color="1,0,0"/>
	<vehicle id="veh243" type="CarC" route="route0" depart="654" departSpeed="12" color="0,1,1"/>
	<vehicle id="veh244" type="CarD" route="route1" depart="654" departSpeed="12" color="1,0,0"/>
	<vehicle id="veh245" type="CarE" route="route0" depart="660" departSpeed="12" color="1,0,1"/>
	<vehicle id="veh246" type="CarD" route="route1" depart="660" departSpeed="12" color="1,0,0"/>
	<vehicle id="veh247" type="CarD" route="route1" depart="662" departSpeed="12" color="1,0,0"/>
	<vehicle id="veh248" type="CarE" route="route1" depart="665" departSpeed="12" color="1,0,1"/>
	<vehicle id="veh249" type="CarF" route="route0" depart="666" departSpeed="12" color="1,1,0"/>
	<vehicle id="veh250" type="CarF" route="route0" depart="670" departSpeed="12" color="1,1,0"/>
	<vehicle id="veh251" type="CarG" route="route1" depart="682" departSpeed="12" color="1,1,1"/>
	<vehicle id="veh252" type="CarD" route="route0" depart="685" departSpeed="12" color="1,0,0"/>
	<vehicle id="veh253" type="CarC" route="route0" depart="686" departSpeed="12" color="0,1,1"/>
	<vehicle id="veh254" type="CarD" route="route0" depart="689" departSpeed="12" color="1,0,0"/>
	<vehicle id="veh255" type="CarF" route="route1" depart="690" departSpeed="12" color="1,1,0"/>
	<vehicle id="veh256" type="CarC" route="route0" depart="691" departSpeed="12" color="0,1,1"/>
	<vehicle id="veh257" type="CarE" route="route1" depart="693" departSpeed="12" color="1,0,1"/>
	<vehicle id="veh258" type="CarE" route="route1" depart="695" departSpeed="12" color="1,0,1"/>
	<vehicle id="veh259" type="CarC" route="route1" depart="697" departSpeed="12" color="0,1,1"/>
	<vehicle id="veh260" type="CarE" route="route0" depart="700" departSpeed="12" color="1,0,1"/>
	<vehicle id="veh261" type="CarD" route="route1" depart="702" departSpeed="12" color="1,0,0"/>
	<vehicle id="veh262" type="CarD" route="route0" depart="702" departSpeed="12" color="1,0,0"/>
	<vehicle id="veh263" type="CarB" route="route1" depart="703" departSpeed="12" color="0,1,0"/>
	<vehicle id="veh264" type="CarC" route="route0" depart="704" departSpeed="12" color="0,1,1"/>
	<vehicle id="veh265" type="CarC" route="route1" depart="709" departSpeed="12" color="0,1,1"/>
	<vehicle id="veh266" type="CarD" route="route1" depart="713" departSpeed="12" color="1,0,0"/>
	<vehicle id="veh267" type="CarC" route="route0" depart="713" departSpeed="12" color="0,1,1"/>
	<vehicle id="veh268" type="CarB" route="route0" depart="715" departSpeed="12" color="0,1,0"/>
	<vehicle id="veh269" type="CarD" route="route1" depart="718" departSpeed="12" color="1,0,0"/>
	<vehicle id="veh270" type="CarA" route="route0" depart="718" departSpeed="12" color="0,0,1"/>
	<vehicle id="veh271" type="CarD" route="route1" depart="721" departSpeed="12" color="1,0,0"/>
	<vehicle id="veh272" type="CarD" route="route1" depart="723" departSpeed="12" color="1,0,0"/>
	<vehicle id="veh273" type="CarD" route="route1" depart="728" departSpeed="12" color="1,0,0"/>
	<vehicle id="veh274" type="CarF" route="route0" depart="729" departSpeed="12" color="1,1,0"/>
	<vehicle id="veh275" type="CarG" route="route0" depart="733" departSpeed="12" color="1,1,1"/>
	<vehicle id="veh276" type="CarE" route="route0" depart="735" departSpeed="12" color="1,0,1"/>
	<vehicle id="veh277" type="CarG" route="route1" depart="735" departSpeed="12" color="1,1,1"/>
	<vehicle id="veh278" type="CarC" route="route0" depart="743" departSpeed="12" color="0,1,1"/>
	<vehicle id="veh279" type="CarD" route="route0" depart="747" departSpeed="12" color="1,0,0"/>
	<vehicle id="veh280" type="CarE" route="route1" depart="747" departSpeed="12" color="1,0,1"/>
	<vehicle id="veh281" type="CarC" route="route0" depart="750" departSpeed="12" color="0,1,1"/>
	<vehicle id="veh282" type="CarD" route="route1" depart="753" departSpeed="12" color="1,0,0"/>
	<vehicle id="veh283" type="CarE" route="route1" depart="755" departSpeed="12" color="1,0,1"/>
	<vehicle id="veh284" type="CarC" route="route1" depart="758" departSpeed="12" color="0,1,1"/>
	<vehicle id="veh285" type="CarE" route="route0" depart="760" departSpeed="12" color="1,0,1"/>
	<vehicle id="veh286" type="CarC" route="route1" depart="762" departSpeed="12" color="0,1,1"/>
	<vehicle id="veh287" type="CarD" route="route0" depart="762" departSpeed="12" color="1,0,0"/>
	<vehicle id="veh288" type="CarC" route="route1" depart="768" departSpeed="12" color="0,1,1"/>
	<vehicle id="veh289" type="CarC" route="route0" depart="771" departSpeed="12" color="0,1,1"/>
	<vehicle id="veh290" type="CarC" route="route1" depart="773" departSpeed="12" color="0,1,1"/>
	<vehicle id="veh291" type="CarD" route="route1" depart="779" departSpeed="12" color="1,0,0"/>
	<vehicle id="veh292" type="CarD" route="route0" depart="782" departSpeed="12" color="1,0,0"/>
	<vehicle id="veh293" type="CarC" route="route0" depart="784" departSpeed="12" color="0,1,1"/>
	<vehicle id="veh294" type="CarE" route="route1" depart="784" departSpeed="12" color="1,0,1"/>
	<vehicle id="veh295" type="CarE" route="route0" depart="791" departSpeed="12" color="1,0,1"/>
	<vehicle id="veh296" type="CarF" route="route0" depart="795" departSpeed="12" color="1,1,0"/>
	<vehicle id="veh297" type="CarG" route="route1" depart="795" departSpeed="12" color="1,1,1"/>
	<vehicle id="veh298" type="CarG" route="route1" depart="798" departSpeed="12" color="1,1,1"/>
	<vehicle id="veh299" type="CarE" route="route0" depart="799" departSpeed="12" color="1,0,1"/>
	<vehicle id="veh300" type="CarF" route="route0" depart="810" departSpeed="12" color="1,1,0"/>
	<vehicle id="veh301" type="CarG" route="route0" depart="815" departSpeed="12" color="1,1,1"/>
	<vehicle id="veh302" type="CarD" route="route0" depart="821" departSpeed="12" color="1,0,0"/>
	<vehicle id="veh303" type="CarC" route="route0" depart="823" departSpeed="12" color="0,1,1"/>
	<vehicle id="veh304" type="CarD" route="route0" depart="825" departSpeed="12" color="1,0,0"/>