<?xml version="1.0" encoding="UTF-8"?>
<nodes>
	<node id="1" x="100" y="10" />
	<node id="2" x="600" y="10" />
	<node id="3" x="1100" y="10" />
	<node id="4" x="1600" y="10" />
	<node id="5" x="2100" y="10" />
	<node id="6" x="2600" y="10" />
	<node id="7" x="3100" y="10" />
	<node id="8" x="3600" y="10" />
	<node id="9" x="4100" y="10" />
	<node id="10" x="10" y="100" />
	<node id="11" x="100" y="100" />
	<node id="12" x="600" y="100" />
	<node id="13" x="1100" y="100" />
	<node id="14" x="1600" y="100" />
	<node id="15" x="2100" y="100" />
	<node id="16" x="2600" y="100" />
	<node id="17" x="3100" y="100" />
	<node id="18" x="3600" y="100" />
	<node id="19" x="4100" y="100" />
	<node id="20" x="4190" y="100" />
	<node id="21" x="10" y="600" />
	<node id="22" x="100" y="600" />
	<node id="23" x="600" y="600" />
	<node id="24" x="1100" y="600" />
	<node id="25" x="1600" y="600" />
	<node id="26" x="2100" y="600" />
	<node id="27" x="2600" y="600" />
	<node id="28" x="3100" y="600" />
	<node id="29" x="3600" y="600" />
	<node id="30" x="4100" y="600" />
	<node id="31" x="4190" y="600" />
	<node id="32" x="10" y="1100" />
	<node id="33" x="100" y="1100" />
	<node id="34" x="600" y="1100" />
	<node id="35" x="1100" y="1100" />
	<node id="36" x="1600" y="1100" />
	<node id="37" x="2100" y="1100" />
	<node id="38" x="2600" y="1100" />
	<node id="39" x="3100" y="1100" />
	<node id="40" x="3600" y="1100" />
	<node id="41" x="4100" y="1100" />
	<node id="42" x="4190" y="1100" />
	<node id="43" x="10" y="1600" />
	<node id="44" x="100" y="1600" />
	<node id="45" x="600" y="1600" />
	<node id="46" x="1100" y="1600" />
	<node id="47" x="1600" y="1600" />
	<node id="48" x="2100" y="1600" />
	<node id="49" x="2600" y="1600" />
	<node id="50" x="3100" y="1600" />
	<node id="51" x="3600" y="1600" />
	<node id="52" x="4100" y="1600" />
	<node id="53" x="4190" y="1600" />
	<node id="54" x="10" y="2100" />
	<node id="55" x="100" y="2100" />
	<node id="56" x="600" y="2100" />
	<node id="57" x="1100" y="2100" />
	<node id="58" x="1600" y="2100" />
	<node id="59" x="2100" y="2100" />
	<node id="60" x="2600" y="2100" />
	<node id="61" x="3100" y="2100" />
	<node id="62" x="3600" y="2100" />
	<node id="63" x="4100" y="2100" />
	<node id="64" x="4190" y="2100" />
	<node id="65" x="10" y="2600" />
	<node id="66" x="100" y="2600" />
	<node id="67" x="600" y="2600" />
	<node id="68" x="1100" y="2600" />
	<node id="69" x="1600" y="2600" />
	<node id="70" x="2100" y="2600" />
	<node id="71" x="2600" y="2600" />
	<node id="72" x="3100" y="2600" />
	<node id="73" x="3600" y="2600" />
	<node id="74" x="4100" y="2600" />
	<node id="75" x="4190" y="2600" />
	<node id="76" x="10" y="3100" />
	<node id="77" x="100" y="3100" />
	<node id="78" x="600" y="3100" />
	<node id="79" x="1100" y="3100" />
	<node id="80" x="1600" y="3100" />
	<node id="81" x="2100" y="3100" />
	<node id="82" x="2600" y="3100" />
	<node id="83" x="3100" y="3100" />
	<node id="84" x="3600" y="3100" />
	<node id="85" x="4100" y="3100" />
	<node id="86" x="4190" y="3100" />
	<node id="87" x="10" y="3600" />
	<node id="88" x="100" y="3600" />
	<node id="89" x="600" y="3600" />
	<node id="90" x="1100" y="3600" />
	<node id="91" x="1600" y="3600" />
	<node id="92" x="2100" y="3600" />
	<node id="93" x="2600" y="3600" />
	<node id="94" x="3100" y="3600" />
	<node id="95" x="3600" y="3600" />
	<node id="96" x="4100" y="3600" />
	<node id="97" x="4190" y="3600" />
	<node id="98" x="10" y="4100" />
	<node id="99" x="100" y="4100" />
	<node id="100" x="600" y="4100" />
	<node id="101" x="1100" y="4100" />
	<node id="102" x="1600" y="4100" />
	<node id="103" x="2100" y="4100" />
	<node id="104" x="2600" y="4100" />
	<node id="105" x="3100" y="4100" />
	<node id="106" x="3600" y="4100" />
	<node id="107" x="4100" y="4100" />
	<node id="108" x="4190" y="4100" />
	<node id="109" x="100" y="4190" />
	<node id="110" x="600" y="4190" />
	<node id="111" x="1100" y="4190" />
	<node id="112" x="1600" y="4190" />
	<node id="113" x="2100" y="4190" />
	<node id="114" x="2600" y="4190" />
	<node id="115" x="3100" y="4190" />
	<node id="116" x="3600" y="4190" />
	<node id="117" x="4100" y="4190" />
</nodes>
