<?xml version="1.0" encoding="UTF-8"?>

<!-- generated on Thu Feb 28 12:03:17 2019 by SUMO netconvert Version 0.27.1
<?xml version="1.0" encoding="UTF-8"?>

<configuration xmlns:xsi="http://www.w3.org/2001/XMLSchema-instance" xsi:noNamespaceSchemaLocation="http://sumo.dlr.de/xsd/netconvertConfiguration.xsd">

    <input>
        <node-files value="manhattan.nod.xml"/>
        <edge-files value="manhattan.edg.xml"/>
        <type-files value="manhattan.typ.xml"/>
    </input>

    <output>
        <output-file value="manhattan.net.xml"/>
    </output>

    <processing>
        <no-turnarounds value="true"/>
    </processing>

</configuration>
-->

<net version="0.27" xmlns:xsi="http://www.w3.org/2001/XMLSchema-instance" xsi:noNamespaceSchemaLocation="http://sumo.dlr.de/xsd/net_file.xsd">

    <location netOffset="-10.00,-10.00" convBoundary="0.00,0.00,4180.00,4180.00" origBoundary="10.00,10.00,4190.00,4190.00" projParameter="!"/>

    <type id="a" priority="1" numLanes="1" speed="16.67"/>
    <type id="b" priority="1" numLanes="2" speed="16.67"/>
    <type id="c" priority="1" numLanes="3" speed="16.67"/>

    <edge id=":100_0" function="internal">
        <lane id=":100_0_0" index="0" speed="16.67" length="5.00" shape="585.05,4098.05 584.86,4096.69 584.27,4095.73 583.31,4095.14 581.95,4094.95"/>
    </edge>
    <edge id=":100_1" function="internal">
        <lane id=":100_1_0" index="0" speed="16.67" length="16.10" shape="585.05,4098.05 585.05,4081.95"/>
        <lane id=":100_1_1" index="1" speed="16.67" length="16.10" shape="588.35,4098.05 588.35,4081.95"/>
    </edge>
    <edge id=":100_3" function="internal">
        <lane id=":100_3_0" index="0" speed="16.67" length="6.41" shape="588.35,4098.05 588.96,4093.81 590.05,4091.98"/>
    </edge>
    <edge id=":100_16" function="internal">
        <lane id=":100_16_0" index="0" speed="16.67" length="9.23" shape="590.05,4091.98 590.78,4090.78 593.81,4088.96 598.05,4088.35"/>
    </edge>
    <edge id=":100_4" function="internal">
        <lane id=":100_4_0" index="0" speed="16.67" length="5.00" shape="598.05,4094.95 596.69,4095.14 595.73,4095.72 595.14,4096.69 594.95,4098.05"/>
    </edge>
    <edge id=":100_5" function="internal">
        <lane id=":100_5_0" index="0" speed="16.67" length="16.10" shape="598.05,4094.95 581.95,4094.95"/>
        <lane id=":100_5_1" index="1" speed="16.67" length="16.10" shape="598.05,4091.65 581.95,4091.65"/>
    </edge>
    <edge id=":100_7" function="internal">
        <lane id=":100_7_0" index="0" speed="16.67" length="15.64" shape="598.05,4091.65 593.81,4091.04 590.77,4089.23 588.96,4086.19 588.35,4081.95"/>
    </edge>
    <edge id=":100_8" function="internal">
        <lane id=":100_8_0" index="0" speed="16.67" length="5.00" shape="594.95,4081.95 595.14,4083.31 595.73,4084.28 596.69,4084.86 598.05,4085.05"/>
    </edge>
    <edge id=":100_9" function="internal">
        <lane id=":100_9_0" index="0" speed="16.67" length="16.10" shape="594.95,4081.95 594.95,4098.05"/>
        <lane id=":100_9_1" index="1" speed="16.67" length="16.10" shape="591.65,4081.95 591.65,4098.05"/>
    </edge>
    <edge id=":100_11" function="internal">
        <lane id=":100_11_0" index="0" speed="16.67" length="6.41" shape="591.65,4081.95 591.04,4086.19 589.95,4088.02"/>
    </edge>
    <edge id=":100_17" function="internal">
        <lane id=":100_17_0" index="0" speed="16.67" length="9.23" shape="589.95,4088.02 589.22,4089.22 586.19,4091.04 581.95,4091.65"/>
    </edge>
    <edge id=":100_12" function="internal">
        <lane id=":100_12_0" index="0" speed="16.67" length="5.00" shape="581.95,4085.05 583.31,4084.86 584.27,4084.28 584.86,4083.31 585.05,4081.95"/>
    </edge>
    <edge id=":100_13" function="internal">
        <lane id=":100_13_0" index="0" speed="16.67" length="16.10" shape="581.95,4085.05 598.05,4085.05"/>
        <lane id=":100_13_1" index="1" speed="16.67" length="16.10" shape="581.95,4088.35 598.05,4088.35"/>
    </edge>
    <edge id=":100_15" function="internal">
        <lane id=":100_15_0" index="0" speed="16.67" length="15.64" shape="581.95,4088.35 586.19,4088.96 589.23,4090.77 591.04,4093.81 591.65,4098.05"/>
    </edge>
    <edge id=":101_0" function="internal">
        <lane id=":101_0_0" index="0" speed="16.67" length="5.00" shape="1085.05,4098.05 1084.86,4096.69 1084.27,4095.73 1083.31,4095.14 1081.95,4094.95"/>
    </edge>
    <edge id=":101_1" function="internal">
        <lane id=":101_1_0" index="0" speed="16.67" length="16.10" shape="1085.05,4098.05 1085.05,4081.95"/>
        <lane id=":101_1_1" index="1" speed="16.67" length="16.10" shape="1088.35,4098.05 1088.35,4081.95"/>
    </edge>
    <edge id=":101_3" function="internal">
        <lane id=":101_3_0" index="0" speed="16.67" length="6.41" shape="1088.35,4098.05 1088.96,4093.81 1090.05,4091.98"/>
    </edge>
    <edge id=":101_16" function="internal">
        <lane id=":101_16_0" index="0" speed="16.67" length="9.23" shape="1090.05,4091.98 1090.77,4090.78 1093.81,4088.96 1098.05,4088.35"/>
    </edge>
    <edge id=":101_4" function="internal">
        <lane id=":101_4_0" index="0" speed="16.67" length="5.00" shape="1098.05,4094.95 1096.69,4095.14 1095.72,4095.72 1095.14,4096.69 1094.95,4098.05"/>
    </edge>
    <edge id=":101_5" function="internal">
        <lane id=":101_5_0" index="0" speed="16.67" length="16.10" shape="1098.05,4094.95 1081.95,4094.95"/>
        <lane id=":101_5_1" index="1" speed="16.67" length="16.10" shape="1098.05,4091.65 1081.95,4091.65"/>
    </edge>
    <edge id=":101_7" function="internal">
        <lane id=":101_7_0" index="0" speed="16.67" length="15.64" shape="1098.05,4091.65 1093.81,4091.04 1090.78,4089.23 1088.96,4086.19 1088.35,4081.95"/>
    </edge>
    <edge id=":101_8" function="internal">
        <lane id=":101_8_0" index="0" speed="16.67" length="5.00" shape="1094.95,4081.95 1095.14,4083.31 1095.73,4084.28 1096.69,4084.86 1098.05,4085.05"/>
    </edge>
    <edge id=":101_9" function="internal">
        <lane id=":101_9_0" index="0" speed="16.67" length="16.10" shape="1094.95,4081.95 1094.95,4098.05"/>
        <lane id=":101_9_1" index="1" speed="16.67" length="16.10" shape="1091.65,4081.95 1091.65,4098.05"/>
    </edge>
    <edge id=":101_11" function="internal">
        <lane id=":101_11_0" index="0" speed="16.67" length="6.41" shape="1091.65,4081.95 1091.04,4086.19 1089.95,4088.02"/>
    </edge>
    <edge id=":101_17" function="internal">
        <lane id=":101_17_0" index="0" speed="16.67" length="9.23" shape="1089.95,4088.02 1089.23,4089.22 1086.19,4091.04 1081.95,4091.65"/>
    </edge>
    <edge id=":101_12" function="internal">
        <lane id=":101_12_0" index="0" speed="16.67" length="5.00" shape="1081.95,4085.05 1083.31,4084.86 1084.28,4084.28 1084.86,4083.31 1085.05,4081.95"/>
    </edge>
    <edge id=":101_13" function="internal">
        <lane id=":101_13_0" index="0" speed="16.67" length="16.10" shape="1081.95,4085.05 1098.05,4085.05"/>
        <lane id=":101_13_1" index="1" speed="16.67" length="16.10" shape="1081.95,4088.35 1098.05,4088.35"/>
    </edge>
    <edge id=":101_15" function="internal">
        <lane id=":101_15_0" index="0" speed="16.67" length="15.64" shape="1081.95,4088.35 1086.19,4088.96 1089.22,4090.77 1091.04,4093.81 1091.65,4098.05"/>
    </edge>
    <edge id=":102_0" function="internal">
        <lane id=":102_0_0" index="0" speed="16.67" length="5.00" shape="1585.05,4098.05 1584.86,4096.69 1584.27,4095.73 1583.31,4095.14 1581.95,4094.95"/>
    </edge>
    <edge id=":102_1" function="internal">
        <lane id=":102_1_0" index="0" speed="16.67" length="16.10" shape="1585.05,4098.05 1585.05,4081.95"/>
        <lane id=":102_1_1" index="1" speed="16.67" length="16.10" shape="1588.35,4098.05 1588.35,4081.95"/>
    </edge>
    <edge id=":102_3" function="internal">
        <lane id=":102_3_0" index="0" speed="16.67" length="6.41" shape="1588.35,4098.05 1588.96,4093.81 1590.05,4091.98"/>
    </edge>
    <edge id=":102_16" function="internal">
        <lane id=":102_16_0" index="0" speed="16.67" length="9.23" shape="1590.05,4091.98 1590.77,4090.78 1593.81,4088.96 1598.05,4088.35"/>
    </edge>
    <edge id=":102_4" function="internal">
        <lane id=":102_4_0" index="0" speed="16.67" length="5.00" shape="1598.05,4094.95 1596.69,4095.14 1595.72,4095.72 1595.14,4096.69 1594.95,4098.05"/>
    </edge>
    <edge id=":102_5" function="internal">
        <lane id=":102_5_0" index="0" speed="16.67" length="16.10" shape="1598.05,4094.95 1581.95,4094.95"/>
        <lane id=":102_5_1" index="1" speed="16.67" length="16.10" shape="1598.05,4091.65 1581.95,4091.65"/>
    </edge>
    <edge id=":102_7" function="internal">
        <lane id=":102_7_0" index="0" speed="16.67" length="15.64" shape="1598.05,4091.65 1593.81,4091.04 1590.78,4089.23 1588.96,4086.19 1588.35,4081.95"/>
    </edge>
    <edge id=":102_8" function="internal">
        <lane id=":102_8_0" index="0" speed="16.67" length="5.00" shape="1594.95,4081.95 1595.14,4083.31 1595.73,4084.28 1596.69,4084.86 1598.05,4085.05"/>
    </edge>
    <edge id=":102_9" function="internal">
        <lane id=":102_9_0" index="0" speed="16.67" length="16.10" shape="1594.95,4081.95 1594.95,4098.05"/>
        <lane id=":102_9_1" index="1" speed="16.67" length="16.10" shape="1591.65,4081.95 1591.65,4098.05"/>
    </edge>
    <edge id=":102_11" function="internal">
        <lane id=":102_11_0" index="0" speed="16.67" length="6.41" shape="1591.65,4081.95 1591.04,4086.19 1589.95,4088.02"/>
    </edge>
    <edge id=":102_17" function="internal">
        <lane id=":102_17_0" index="0" speed="16.67" length="9.23" shape="1589.95,4088.02 1589.23,4089.22 1586.19,4091.04 1581.95,4091.65"/>
    </edge>
    <edge id=":102_12" function="internal">
        <lane id=":102_12_0" index="0" speed="16.67" length="5.00" shape="1581.95,4085.05 1583.31,4084.86 1584.28,4084.28 1584.86,4083.31 1585.05,4081.95"/>
    </edge>
    <edge id=":102_13" function="internal">
        <lane id=":102_13_0" index="0" speed="16.67" length="16.10" shape="1581.95,4085.05 1598.05,4085.05"/>
        <lane id=":102_13_1" index="1" speed="16.67" length="16.10" shape="1581.95,4088.35 1598.05,4088.35"/>
    </edge>
    <edge id=":102_15" function="internal">
        <lane id=":102_15_0" index="0" speed="16.67" length="15.64" shape="1581.95,4088.35 1586.19,4088.96 1589.22,4090.77 1591.04,4093.81 1591.65,4098.05"/>
    </edge>
    <edge id=":103_0" function="internal">
        <lane id=":103_0_0" index="0" speed="16.67" length="5.00" shape="2085.05,4098.05 2084.86,4096.69 2084.28,4095.73 2083.31,4095.14 2081.95,4094.95"/>
    </edge>
    <edge id=":103_1" function="internal">
        <lane id=":103_1_0" index="0" speed="16.67" length="16.10" shape="2085.05,4098.05 2085.05,4081.95"/>
        <lane id=":103_1_1" index="1" speed="16.67" length="16.10" shape="2088.35,4098.05 2088.35,4081.95"/>
    </edge>
    <edge id=":103_3" function="internal">
        <lane id=":103_3_0" index="0" speed="16.67" length="6.41" shape="2088.35,4098.05 2088.96,4093.81 2090.05,4091.98"/>
    </edge>
    <edge id=":103_16" function="internal">
        <lane id=":103_16_0" index="0" speed="16.67" length="9.23" shape="2090.05,4091.98 2090.77,4090.78 2093.81,4088.96 2098.05,4088.35"/>
    </edge>
    <edge id=":103_4" function="internal">
        <lane id=":103_4_0" index="0" speed="16.67" length="5.00" shape="2098.05,4094.95 2096.69,4095.14 2095.72,4095.72 2095.14,4096.69 2094.95,4098.05"/>
    </edge>
    <edge id=":103_5" function="internal">
        <lane id=":103_5_0" index="0" speed="16.67" length="16.10" shape="2098.05,4094.95 2081.95,4094.95"/>
        <lane id=":103_5_1" index="1" speed="16.67" length="16.10" shape="2098.05,4091.65 2081.95,4091.65"/>
    </edge>
    <edge id=":103_7" function="internal">
        <lane id=":103_7_0" index="0" speed="16.67" length="15.64" shape="2098.05,4091.65 2093.81,4091.04 2090.78,4089.23 2088.96,4086.19 2088.35,4081.95"/>
    </edge>
    <edge id=":103_8" function="internal">
        <lane id=":103_8_0" index="0" speed="16.67" length="5.00" shape="2094.95,4081.95 2095.14,4083.31 2095.72,4084.28 2096.69,4084.86 2098.05,4085.05"/>
    </edge>
    <edge id=":103_9" function="internal">
        <lane id=":103_9_0" index="0" speed="16.67" length="16.10" shape="2094.95,4081.95 2094.95,4098.05"/>
        <lane id=":103_9_1" index="1" speed="16.67" length="16.10" shape="2091.65,4081.95 2091.65,4098.05"/>
    </edge>
    <edge id=":103_11" function="internal">
        <lane id=":103_11_0" index="0" speed="16.67" length="6.41" shape="2091.65,4081.95 2091.04,4086.19 2089.95,4088.02"/>
    </edge>
    <edge id=":103_17" function="internal">
        <lane id=":103_17_0" index="0" speed="16.67" length="9.23" shape="2089.95,4088.02 2089.23,4089.22 2086.19,4091.04 2081.95,4091.65"/>
    </edge>
    <edge id=":103_12" function="internal">
        <lane id=":103_12_0" index="0" speed="16.67" length="5.00" shape="2081.95,4085.05 2083.31,4084.86 2084.28,4084.28 2084.86,4083.31 2085.05,4081.95"/>
    </edge>
    <edge id=":103_13" function="internal">
        <lane id=":103_13_0" index="0" speed="16.67" length="16.10" shape="2081.95,4085.05 2098.05,4085.05"/>
        <lane id=":103_13_1" index="1" speed="16.67" length="16.10" shape="2081.95,4088.35 2098.05,4088.35"/>
    </edge>
    <edge id=":103_15" function="internal">
        <lane id=":103_15_0" index="0" speed="16.67" length="15.64" shape="2081.95,4088.35 2086.19,4088.96 2089.22,4090.77 2091.04,4093.81 2091.65,4098.05"/>
    </edge>
    <edge id=":104_0" function="internal">
        <lane id=":104_0_0" index="0" speed="16.67" length="5.00" shape="2585.05,4098.05 2584.86,4096.69 2584.28,4095.73 2583.31,4095.14 2581.95,4094.95"/>
    </edge>
    <edge id=":104_1" function="internal">
        <lane id=":104_1_0" index="0" speed="16.67" length="16.10" shape="2585.05,4098.05 2585.05,4081.95"/>
        <lane id=":104_1_1" index="1" speed="16.67" length="16.10" shape="2588.35,4098.05 2588.35,4081.95"/>
    </edge>
    <edge id=":104_3" function="internal">
        <lane id=":104_3_0" index="0" speed="16.67" length="6.41" shape="2588.35,4098.05 2588.96,4093.81 2590.05,4091.98"/>
    </edge>
    <edge id=":104_16" function="internal">
        <lane id=":104_16_0" index="0" speed="16.67" length="9.23" shape="2590.05,4091.98 2590.77,4090.78 2593.81,4088.96 2598.05,4088.35"/>
    </edge>
    <edge id=":104_4" function="internal">
        <lane id=":104_4_0" index="0" speed="16.67" length="5.00" shape="2598.05,4094.95 2596.69,4095.14 2595.72,4095.72 2595.14,4096.69 2594.95,4098.05"/>
    </edge>
    <edge id=":104_5" function="internal">
        <lane id=":104_5_0" index="0" speed="16.67" length="16.10" shape="2598.05,4094.95 2581.95,4094.95"/>
        <lane id=":104_5_1" index="1" speed="16.67" length="16.10" shape="2598.05,4091.65 2581.95,4091.65"/>
    </edge>
    <edge id=":104_7" function="internal">
        <lane id=":104_7_0" index="0" speed="16.67" length="15.64" shape="2598.05,4091.65 2593.81,4091.04 2590.78,4089.23 2588.96,4086.19 2588.35,4081.95"/>
    </edge>
    <edge id=":104_8" function="internal">
        <lane id=":104_8_0" index="0" speed="16.67" length="5.00" shape="2594.95,4081.95 2595.14,4083.31 2595.72,4084.28 2596.69,4084.86 2598.05,4085.05"/>
    </edge>
    <edge id=":104_9" function="internal">
        <lane id=":104_9_0" index="0" speed="16.67" length="16.10" shape="2594.95,4081.95 2594.95,4098.05"/>
        <lane id=":104_9_1" index="1" speed="16.67" length="16.10" shape="2591.65,4081.95 2591.65,4098.05"/>
    </edge>
    <edge id=":104_11" function="internal">
        <lane id=":104_11_0" index="0" speed="16.67" length="6.41" shape="2591.65,4081.95 2591.04,4086.19 2589.95,4088.02"/>
    </edge>
    <edge id=":104_17" function="internal">
        <lane id=":104_17_0" index="0" speed="16.67" length="9.23" shape="2589.95,4088.02 2589.23,4089.22 2586.19,4091.04 2581.95,4091.65"/>
    </edge>
    <edge id=":104_12" function="internal">
        <lane id=":104_12_0" index="0" speed="16.67" length="5.00" shape="2581.95,4085.05 2583.31,4084.86 2584.28,4084.28 2584.86,4083.31 2585.05,4081.95"/>
    </edge>
    <edge id=":104_13" function="internal">
        <lane id=":104_13_0" index="0" speed="16.67" length="16.10" shape="2581.95,4085.05 2598.05,4085.05"/>
        <lane id=":104_13_1" index="1" speed="16.67" length="16.10" shape="2581.95,4088.35 2598.05,4088.35"/>
    </edge>
    <edge id=":104_15" function="internal">
        <lane id=":104_15_0" index="0" speed="16.67" length="15.64" shape="2581.95,4088.35 2586.19,4088.96 2589.22,4090.77 2591.04,4093.81 2591.65,4098.05"/>
    </edge>
    <edge id=":105_0" function="internal">
        <lane id=":105_0_0" index="0" speed="16.67" length="5.00" shape="3085.05,4098.05 3084.86,4096.69 3084.28,4095.73 3083.31,4095.14 3081.95,4094.95"/>
    </edge>
    <edge id=":105_1" function="internal">
        <lane id=":105_1_0" index="0" speed="16.67" length="16.10" shape="3085.05,4098.05 3085.05,4081.95"/>
        <lane id=":105_1_1" index="1" speed="16.67" length="16.10" shape="3088.35,4098.05 3088.35,4081.95"/>
    </edge>
    <edge id=":105_3" function="internal">
        <lane id=":105_3_0" index="0" speed="16.67" length="6.41" shape="3088.35,4098.05 3088.96,4093.81 3090.05,4091.98"/>
    </edge>
    <edge id=":105_16" function="internal">
        <lane id=":105_16_0" index="0" speed="16.67" length="9.23" shape="3090.05,4091.98 3090.77,4090.78 3093.81,4088.96 3098.05,4088.35"/>
    </edge>
    <edge id=":105_4" function="internal">
        <lane id=":105_4_0" index="0" speed="16.67" length="5.00" shape="3098.05,4094.95 3096.69,4095.14 3095.72,4095.72 3095.14,4096.69 3094.95,4098.05"/>
    </edge>
    <edge id=":105_5" function="internal">
        <lane id=":105_5_0" index="0" speed="16.67" length="16.10" shape="3098.05,4094.95 3081.95,4094.95"/>
        <lane id=":105_5_1" index="1" speed="16.67" length="16.10" shape="3098.05,4091.65 3081.95,4091.65"/>
    </edge>
    <edge id=":105_7" function="internal">
        <lane id=":105_7_0" index="0" speed="16.67" length="15.64" shape="3098.05,4091.65 3093.81,4091.04 3090.78,4089.23 3088.96,4086.19 3088.35,4081.95"/>
    </edge>
    <edge id=":105_8" function="internal">
        <lane id=":105_8_0" index="0" speed="16.67" length="5.00" shape="3094.95,4081.95 3095.14,4083.31 3095.72,4084.28 3096.69,4084.86 3098.05,4085.05"/>
    </edge>
    <edge id=":105_9" function="internal">
        <lane id=":105_9_0" index="0" speed="16.67" length="16.10" shape="3094.95,4081.95 3094.95,4098.05"/>
        <lane id=":105_9_1" index="1" speed="16.67" length="16.10" shape="3091.65,4081.95 3091.65,4098.05"/>
    </edge>
    <edge id=":105_11" function="internal">
        <lane id=":105_11_0" index="0" speed="16.67" length="6.41" shape="3091.65,4081.95 3091.04,4086.19 3089.95,4088.02"/>
    </edge>
    <edge id=":105_17" function="internal">
        <lane id=":105_17_0" index="0" speed="16.67" length="9.23" shape="3089.95,4088.02 3089.23,4089.22 3086.19,4091.04 3081.95,4091.65"/>
    </edge>
    <edge id=":105_12" function="internal">
        <lane id=":105_12_0" index="0" speed="16.67" length="5.00" shape="3081.95,4085.05 3083.31,4084.86 3084.28,4084.28 3084.86,4083.31 3085.05,4081.95"/>
    </edge>
    <edge id=":105_13" function="internal">
        <lane id=":105_13_0" index="0" speed="16.67" length="16.10" shape="3081.95,4085.05 3098.05,4085.05"/>
        <lane id=":105_13_1" index="1" speed="16.67" length="16.10" shape="3081.95,4088.35 3098.05,4088.35"/>
    </edge>
    <edge id=":105_15" function="internal">
        <lane id=":105_15_0" index="0" speed="16.67" length="15.64" shape="3081.95,4088.35 3086.19,4088.96 3089.22,4090.77 3091.04,4093.81 3091.65,4098.05"/>
    </edge>
    <edge id=":106_0" function="internal">
        <lane id=":106_0_0" index="0" speed="16.67" length="5.00" shape="3585.05,4098.05 3584.86,4096.69 3584.28,4095.73 3583.31,4095.14 3581.95,4094.95"/>
    </edge>
    <edge id=":106_1" function="internal">
        <lane id=":106_1_0" index="0" speed="16.67" length="16.10" shape="3585.05,4098.05 3585.05,4081.95"/>
        <lane id=":106_1_1" index="1" speed="16.67" length="16.10" shape="3588.35,4098.05 3588.35,4081.95"/>
    </edge>
    <edge id=":106_3" function="internal">
        <lane id=":106_3_0" index="0" speed="16.67" length="6.41" shape="3588.35,4098.05 3588.96,4093.81 3590.05,4091.98"/>
    </edge>
    <edge id=":106_16" function="internal">
        <lane id=":106_16_0" index="0" speed="16.67" length="9.23" shape="3590.05,4091.98 3590.77,4090.78 3593.81,4088.96 3598.05,4088.35"/>
    </edge>
    <edge id=":106_4" function="internal">
        <lane id=":106_4_0" index="0" speed="16.67" length="5.00" shape="3598.05,4094.95 3596.69,4095.14 3595.72,4095.72 3595.14,4096.69 3594.95,4098.05"/>
    </edge>
    <edge id=":106_5" function="internal">
        <lane id=":106_5_0" index="0" speed="16.67" length="16.10" shape="3598.05,4094.95 3581.95,4094.95"/>
        <lane id=":106_5_1" index="1" speed="16.67" length="16.10" shape="3598.05,4091.65 3581.95,4091.65"/>
    </edge>
    <edge id=":106_7" function="internal">
        <lane id=":106_7_0" index="0" speed="16.67" length="15.64" shape="3598.05,4091.65 3593.81,4091.04 3590.78,4089.23 3588.96,4086.19 3588.35,4081.95"/>
    </edge>
    <edge id=":106_8" function="internal">
        <lane id=":106_8_0" index="0" speed="16.67" length="5.00" shape="3594.95,4081.95 3595.14,4083.31 3595.72,4084.28 3596.69,4084.86 3598.05,4085.05"/>
    </edge>
    <edge id=":106_9" function="internal">
        <lane id=":106_9_0" index="0" speed="16.67" length="16.10" shape="3594.95,4081.95 3594.95,4098.05"/>
        <lane id=":106_9_1" index="1" speed="16.67" length="16.10" shape="3591.65,4081.95 3591.65,4098.05"/>
    </edge>
    <edge id=":106_11" function="internal">
        <lane id=":106_11_0" index="0" speed="16.67" length="6.41" shape="3591.65,4081.95 3591.04,4086.19 3589.95,4088.02"/>
    </edge>
    <edge id=":106_17" function="internal">
        <lane id=":106_17_0" index="0" speed="16.67" length="9.23" shape="3589.95,4088.02 3589.23,4089.22 3586.19,4091.04 3581.95,4091.65"/>
    </edge>
    <edge id=":106_12" function="internal">
        <lane id=":106_12_0" index="0" speed="16.67" length="5.00" shape="3581.95,4085.05 3583.31,4084.86 3584.28,4084.28 3584.86,4083.31 3585.05,4081.95"/>
    </edge>
    <edge id=":106_13" function="internal">
        <lane id=":106_13_0" index="0" speed="16.67" length="16.10" shape="3581.95,4085.05 3598.05,4085.05"/>
        <lane id=":106_13_1" index="1" speed="16.67" length="16.10" shape="3581.95,4088.35 3598.05,4088.35"/>
    </edge>
    <edge id=":106_15" function="internal">
        <lane id=":106_15_0" index="0" speed="16.67" length="15.64" shape="3581.95,4088.35 3586.19,4088.96 3589.22,4090.77 3591.04,4093.81 3591.65,4098.05"/>
    </edge>
    <edge id=":107_0" function="internal">
        <lane id=":107_0_0" index="0" speed="16.67" length="5.00" shape="4085.05,4098.05 4084.86,4096.69 4084.28,4095.73 4083.31,4095.14 4081.95,4094.95"/>
    </edge>
    <edge id=":107_1" function="internal">
        <lane id=":107_1_0" index="0" speed="16.67" length="16.10" shape="4085.05,4098.05 4085.05,4081.95"/>
        <lane id=":107_1_1" index="1" speed="16.67" length="16.10" shape="4088.35,4098.05 4088.35,4081.95"/>
    </edge>
    <edge id=":107_3" function="internal">
        <lane id=":107_3_0" index="0" speed="16.67" length="6.41" shape="4088.35,4098.05 4088.96,4093.81 4090.05,4091.98"/>
    </edge>
    <edge id=":107_16" function="internal">
        <lane id=":107_16_0" index="0" speed="16.67" length="9.23" shape="4090.05,4091.98 4090.77,4090.78 4093.81,4088.96 4098.05,4088.35"/>
    </edge>
    <edge id=":107_4" function="internal">
        <lane id=":107_4_0" index="0" speed="16.67" length="5.00" shape="4098.05,4094.95 4096.69,4095.14 4095.73,4095.72 4095.14,4096.69 4094.95,4098.05"/>
    </edge>
    <edge id=":107_5" function="internal">
        <lane id=":107_5_0" index="0" speed="16.67" length="16.10" shape="4098.05,4094.95 4081.95,4094.95"/>
        <lane id=":107_5_1" index="1" speed="16.67" length="16.10" shape="4098.05,4091.65 4081.95,4091.65"/>
    </edge>
    <edge id=":107_7" function="internal">
        <lane id=":107_7_0" index="0" speed="16.67" length="15.64" shape="4098.05,4091.65 4093.81,4091.04 4090.78,4089.23 4088.96,4086.19 4088.35,4081.95"/>
    </edge>
    <edge id=":107_8" function="internal">
        <lane id=":107_8_0" index="0" speed="16.67" length="5.00" shape="4094.95,4081.95 4095.14,4083.31 4095.72,4084.28 4096.69,4084.86 4098.05,4085.05"/>
    </edge>
    <edge id=":107_9" function="internal">
        <lane id=":107_9_0" index="0" speed="16.67" length="16.10" shape="4094.95,4081.95 4094.95,4098.05"/>
        <lane id=":107_9_1" index="1" speed="16.67" length="16.10" shape="4091.65,4081.95 4091.65,4098.05"/>
    </edge>
    <edge id=":107_11" function="internal">
        <lane id=":107_11_0" index="0" speed="16.67" length="6.41" shape="4091.65,4081.95 4091.04,4086.19 4089.95,4088.02"/>
    </edge>
    <edge id=":107_17" function="internal">
        <lane id=":107_17_0" index="0" speed="16.67" length="9.23" shape="4089.95,4088.02 4089.23,4089.22 4086.19,4091.04 4081.95,4091.65"/>
    </edge>
    <edge id=":107_12" function="internal">
        <lane id=":107_12_0" index="0" speed="16.67" length="5.00" shape="4081.95,4085.05 4083.31,4084.86 4084.28,4084.28 4084.86,4083.31 4085.05,4081.95"/>
    </edge>
    <edge id=":107_13" function="internal">
        <lane id=":107_13_0" index="0" speed="16.67" length="16.10" shape="4081.95,4085.05 4098.05,4085.05"/>
        <lane id=":107_13_1" index="1" speed="16.67" length="16.10" shape="4081.95,4088.35 4098.05,4088.35"/>
    </edge>
    <edge id=":107_15" function="internal">
        <lane id=":107_15_0" index="0" speed="16.67" length="15.64" shape="4081.95,4088.35 4086.19,4088.96 4089.22,4090.77 4091.04,4093.81 4091.65,4098.05"/>
    </edge>
    <edge id=":11_0" function="internal">
        <lane id=":11_0_0" index="0" speed="16.67" length="5.00" shape="85.05,98.05 84.86,96.69 84.27,95.73 83.31,95.14 81.95,94.95"/>
    </edge>
    <edge id=":11_1" function="internal">
        <lane id=":11_1_0" index="0" speed="16.67" length="16.10" shape="85.05,98.05 85.05,81.95"/>
        <lane id=":11_1_1" index="1" speed="16.67" length="16.10" shape="88.35,98.05 88.35,81.95"/>
    </edge>
    <edge id=":11_3" function="internal">
        <lane id=":11_3_0" index="0" speed="16.67" length="6.41" shape="88.35,98.05 88.96,93.81 90.05,91.98"/>
    </edge>
    <edge id=":11_16" function="internal">
        <lane id=":11_16_0" index="0" speed="16.67" length="9.23" shape="90.05,91.98 90.77,90.78 93.81,88.96 98.05,88.35"/>
    </edge>
    <edge id=":11_4" function="internal">
        <lane id=":11_4_0" index="0" speed="16.67" length="5.00" shape="98.05,94.95 96.69,95.14 95.73,95.73 95.14,96.69 94.95,98.05"/>
    </edge>
    <edge id=":11_5" function="internal">
        <lane id=":11_5_0" index="0" speed="16.67" length="16.10" shape="98.05,94.95 81.95,94.95"/>
        <lane id=":11_5_1" index="1" speed="16.67" length="16.10" shape="98.05,91.65 81.95,91.65"/>
    </edge>
    <edge id=":11_7" function="internal">
        <lane id=":11_7_0" index="0" speed="16.67" length="15.64" shape="98.05,91.65 93.81,91.04 90.78,89.23 88.96,86.19 88.35,81.95"/>
    </edge>
    <edge id=":11_8" function="internal">
        <lane id=":11_8_0" index="0" speed="16.67" length="5.00" shape="94.95,81.95 95.14,83.31 95.73,84.28 96.69,84.86 98.05,85.05"/>
    </edge>
    <edge id=":11_9" function="internal">
        <lane id=":11_9_0" index="0" speed="16.67" length="16.10" shape="94.95,81.95 94.95,98.05"/>
        <lane id=":11_9_1" index="1" speed="16.67" length="16.10" shape="91.65,81.95 91.65,98.05"/>
    </edge>
    <edge id=":11_11" function="internal">
        <lane id=":11_11_0" index="0" speed="16.67" length="6.41" shape="91.65,81.95 91.04,86.19 89.95,88.02"/>
    </edge>
    <edge id=":11_17" function="internal">
        <lane id=":11_17_0" index="0" speed="16.67" length="9.23" shape="89.95,88.02 89.23,89.23 86.19,91.04 81.95,91.65"/>
    </edge>
    <edge id=":11_12" function="internal">
        <lane id=":11_12_0" index="0" speed="16.67" length="5.00" shape="81.95,85.05 83.31,84.86 84.28,84.27 84.86,83.31 85.05,81.95"/>
    </edge>
    <edge id=":11_13" function="internal">
        <lane id=":11_13_0" index="0" speed="16.67" length="16.10" shape="81.95,85.05 98.05,85.05"/>
        <lane id=":11_13_1" index="1" speed="16.67" length="16.10" shape="81.95,88.35 98.05,88.35"/>
    </edge>
    <edge id=":11_15" function="internal">
        <lane id=":11_15_0" index="0" speed="16.67" length="15.64" shape="81.95,88.35 86.19,88.96 89.22,90.77 91.04,93.81 91.65,98.05"/>
    </edge>
    <edge id=":12_0" function="internal">
        <lane id=":12_0_0" index="0" speed="16.67" length="5.00" shape="585.05,98.05 584.86,96.69 584.27,95.73 583.31,95.14 581.95,94.95"/>
    </edge>
    <edge id=":12_1" function="internal">
        <lane id=":12_1_0" index="0" speed="16.67" length="16.10" shape="585.05,98.05 585.05,81.95"/>
        <lane id=":12_1_1" index="1" speed="16.67" length="16.10" shape="588.35,98.05 588.35,81.95"/>
    </edge>
    <edge id=":12_3" function="internal">
        <lane id=":12_3_0" index="0" speed="16.67" length="6.41" shape="588.35,98.05 588.96,93.81 590.05,91.98"/>
    </edge>
    <edge id=":12_16" function="internal">
        <lane id=":12_16_0" index="0" speed="16.67" length="9.23" shape="590.05,91.98 590.78,90.78 593.81,88.96 598.05,88.35"/>
    </edge>
    <edge id=":12_4" function="internal">
        <lane id=":12_4_0" index="0" speed="16.67" length="5.00" shape="598.05,94.95 596.69,95.14 595.73,95.73 595.14,96.69 594.95,98.05"/>
    </edge>
    <edge id=":12_5" function="internal">