<?xml version="1.0" encoding="UTF-8"?>
<edges>
	<edge id="E1" from="1" to="11" type="b"/>
	<edge id="-E1" from="11" to="1" type="b"/>
	<edge id="E2" from="2" to="12" type="b"/>
	<edge id="-E2" from="12" to="2" type="b"/>
	<edge id="E3" from="3" to="13" type="b"/>
	<edge id="-E3" from="13" to="3" type="b"/>
	<edge id="E4" from="4" to="14" type="b"/>
	<edge id="-E4" from="14" to="4" type="b"/>
	<edge id="E5" from="5" to="15" type="b"/>
	<edge id="-E5" from="15" to="5" type="b"/>
	<edge id="E6" from="6" to="16" type="b"/>
	<edge id="-E6" from="16" to="6" type="b"/>
	<edge id="E7" from="7" to="17" type="b"/>
	<edge id="-E7" from="17" to="7" type="b"/>
	<edge id="E8" from="8" to="18" type="b"/>
	<edge id="-E8" from="18" to="8" type="b"/>
	<edge id="E9" from="9" to="19" type="b"/>
	<edge id="-E9" from="19" to="9" type="b"/>
	<edge id="E10" from="11" to="22" type="b"/>
	<edge id="-E10" from="22" to="11" type="b"/>
	<edge id="E11" from="12" to="23" type="b"/>
	<edge id="-E11" from="23" to="12" type="b"/>
	<edge id="E12" from="13" to="24" type="b"/>
	<edge id="-E12" from="24" to="13" type="b"/>
	<edge id="E13" from="14" to="25" type="b"/>
	<edge id="-E13" from="25" to="14" type="b"/>
	<edge id="E14" from="15" to="26" type="b"/>
	<edge id="-E14" from="26" to="15" type="b"/>
	<edge id="E15" from="16" to="27" type="b"/>
	<edge id="-E15" from="27" to="16" type="b"/>
	<edge id="E16" from="17" to="28" type="b"/>
	<edge id="-E16" from="28" to="17" type="b"/>
	<edge id="E17" from="18" to="29" type="b"/>
	<edge id="-E17" from="29" to="18" type="b"/>
	<edge id="E18" from="19" to="30" type="b"/>
	<edge id="-E18" from="30" to="19" type="b"/>
	<edge id="E19" from="22" to="33" type="b"/>
	<edge id="-E19" from="33" to="22" type="b"/>
	<edge id="E20" from="23" to="34" type="b"/>
	<edge id="-E20" from="34" to="23" type="b"/>
	<edge id="E21" from="24" to="35" type="b"/>
	<edge id="-E21" from="35" to="24" type="b"/>
	<edge id="E22" from="25" to="36" type="b"/>
	<edge id="-E22" from="36" to="25" type="b"/>
	<edge id="E23" from="26" to="37" type="b"/>
	<edge id="-E23" from="37" to="26" type="b"/>
	<edge id="E24" from="27" to="38" type="b"/>
	<edge id="-E24" from="38" to="27" type="b"/>
	<edge id="E25" from="28" to="39" type="b"/>
	<edge id="-E25" from="39" to="28" type="b"/>
	<edge id="E26" from="29" to="40" type="b"/>
	<edge id="-E26" from="40" to="29" type="b"/>
	<edge id="E27" from="30" to="41" type="b"/>
	<edge id="-E27" from="41" to="30" type="b"/>
	<edge id="E28" from="33" to="44" type="b"/>
	<edge id="-E28" from="44" to="33" type="b"/>
	<edge id="E29" from="34" to="45" type="b"/>
	<edge id="-E29" from="45" to="34" type="b"/>
	<edge id="E30" from="35" to="46" type="b"/>
	<edge id="-E30" from="46" to="35" type="b"/>
	<edge id="E31" from="36" to="47" type="b"/>
	<edge id="-E31" from="47" to="36" type="b"/>
	<edge id="E32" from="37" to="48" type="b"/>
	<edge id="-E32" from="48" to="37" type="b"/>
	<edge id="E33" from="38" to="49" type="b"/>
	<edge id="-E33" from="49" to="38" type="b"/>
	<edge id="E34" from="39" to="50" type="b"/>
	<edge id="-E34" from="50" to="39" type="b"/>
	<edge id="E35" from="40" to="51" type="b"/>
	<edge id="-E35" from="51" to="40" type="b"/>
	<edge id="E36" from="41" to="52" type="b"/>
	<edge id="-E36" from="52" to="41" type="b"/>
	<edge id="E37" from="44" to="55" type="b"/>
	<edge id="-E37" from="55" to="44" type="b"/>
	<edge id="E38" from="45" to="56" type="b"/>
	<edge id="-E38" from="56" to="45" type="b"/>
	<edge id="E39" from="46" to="57" type="b"/>
	<edge id="-E39" from="57" to="46" type="b"/>
	<edge id="E40" from="47" to="58" type="b"/>
	<edge id="-E40" from="58" to="47" type="b"/>
	<edge id="E41" from="48" to="59" type="b"/>
	<edge id="-E41" from="59" to="48" type="b"/>
	<edge id="E42" from="49" to="60" type="b"/>
	<edge id="-E42" from="60" to="49" type="b"/>
	<edge id="E43" from="50" to="61" type="b"/>
	<edge id="-E43" from="61" to="50" type="b"/>
	<edge id="E44" from="51" to="62" type="b"/>
	<edge id="-E44" from="62" to="51" type="b"/>
	<edge id="E45" from="52" to="63" type="b"/>
	<edge id="-E45" from="63" to="52" type="b"/>
	<edge id="E46" from="55" to="66" type="b"/>
	<edge id="-E46" from="66" to="55" type="b"/>
	<edge id="E47" from="56" to="67" type="b"/>
	<edge id="-E47" from="67" to="56" type="b"/>
	<edge id="E48" from="57" to="68" type="b"/>
	<edge id="-E48" from="68" to="57" type="b"/>
	<edge id="E49" from="58" to="69" type="b"/>
	<edge id="-E49" from="69" to="58" type="b"/>
	<edge id="E50" from="59" to="70" type="b"/>
	<edge id="-E50" from="70" to="59" type="b"/>
	<edge id="E51" from="60" to="71" type="b"/>
	<edge id="-E51" from="71" to="60" type="b"/>
	<edge id="E52" from="61" to="72" type="b"/>
	<edge id="-E52" from="72" to="61" type="b"/>
	<edge id="E53" from="62" to="73" type="b"/>
	<edge id="-E53" from="73" to="62" type="b"/>
	<edge id="E54" from="63" to="74" type="b"/>
	<edge id="-E54" from="74" to="63" type="b"/>
	<edge id="E55" from="66" to="77" type="b"/>
	<edge id="-E55" from="77" to="66" type="b"/>
	<edge id="E56" from="67" to="78" type="b"/>
	<edge id="-E56" from="78" to="67" type="b"/>
	<edge id="E57" from="68" to="79" type="b"/>
	<edge id="-E57" from="79" to="68" type="b"/>
	<edge id="E58" from="69" to="80" type="b"/>
	<edge id="-E58" from="80" to="69" type="b"/>
	<edge id="E59" from="70" to="81" type="b"/>
	<edge id="-E59" from="81" to="70" type="b"/>
	<edge id="E60" from="71" to="82" type="b"/>
	<edge id="-E60" from="82" to="71" type="b"/>
	<edge id="E61" from="72" to="83" type="b"/>
	<edge id="-E61" from="83" to="72" type="b"/>
	<edge id="E62" from="73" to="84" type="b"/>
	<edge id="-E62" from="84" to="73" type="b"/>
	<edge id="E63" from="74" to="85" type="b"/>
	<edge id="-E63" from="85" to="74" type="b"/>
	<edge id="E64" from="77" to="88" type="b"/>
	<edge id="-E64" from="88" to="77" type="b"/>
	<edge id="E65" from="78" to="89" type="b"/>
	<edge id="-E65" from="89" to="78" type="b"/>
	<edge id="E66" from="79" to="90" type="b"/>
	<edge id="-E66" from="90" to="79" type="b"/>
	<edge id="E67" from="80" to="91" type="b"/>
	<edge id="-E67" from="91" to="80" type="b"/>
	<edge id="E68" from="81" to="92" type="b"/>
	<edge id="-E68" from="92" to="81" type="b"/>
	<edge id="E69" from="82" to="93" type="b"/>
	<edge id="-E69" from="93" to="82" type="b"/>
	<edge id="E70" from="83" to="94" type="b"/>
	<edge id="-E70" from="94" to="83" type="b"/>
	<edge id="E71" from="84" to="95" type="b"/>
	<edge id="-E71" from="95" to="84" type="b"/>
	<edge id="E72" from="85" to="96" type="b"/>
	<edge id="-E72" from="96" to="85" type="b"/>
	<edge id="E73" from="88" to="99" type="b"/>
	<edge id="-E73" from="99" to="88" type="b"/>
	<edge id="E74" from="89" to="100" type="b"/>
	<edge id="-E74" from="100" to="89" type="b"/>
	<edge id="E75" from="90" to="101" type="b"/>
	<edge id="-E75" from="101" to="90" type="b"/>
	<edge id="E76" from="91" to="102" type="b"/>
	<edge id="-E76" from="102" to="91" type="b"/>
	<edge id="E77" from="92" to="103" type="b"/>
	<edge id="-E77" from="103" to="92" type="b"/>
	<edge id="E78" from="93" to="104" type="b"/>
	<edge id="-E78" from="104" to="93" type="b"/>
	<edge id="E79" from="94" to="105" type="b"/>
	<edge id="-E79" from="105" to="94" type="b"/>
	<edge id="E80" from="95" to="106" type="b"/>
	<edge id="-E80" from="106" to="95" type="b"/>
	<edge id="E81" from="96" to="107" type="b"/>
	<edge id="-E81" from="107" to="96" type="b"/>
	<edge id="E82" from="99" to="109" type="b"/>
	<edge id="-E82" from="109" to="99" type="b"/>
	<edge id="E83" from="100" to="110" type="b"/>
	<edge id="-E83" from="110" to="100" type="b"/>
	<edge id="E84" from="101" to="111" type="b"/>
	<edge id="-E84" from="111" to="101" type="b"/>
	<edge id="E85" from="102" to="112" type="b"/>
	<edge id="-E85" from="112" to="102" type="b"/>
	<edge id="E86" from="103" to="113" type="b"/>
	<edge id="-E86" from="113" to="103" type="b"/>
	<edge id="E87" from="104" to="114" type="b"/>
	<edge id="-E87" from="114" to="104" type="b"/>
	<edge id="E88" from="105" to="115" type="b"/>
	<edge id="-E88" from="115" to="105" type="b"/>
	<edge id="E89" from="106" to="116" type="b"/>
	<edge id="-E89" from="116" to="106" type="b"/>
	<edge id="E90" from="107" to="117" type="b"/>
	<edge id="-E90" from="117" to="107" type="b"/>
	<edge id="E91" from="10" to="11" type="b"/>
	<edge id="-E91" from="11" to="10" type="b"/>
	<edge id="E92" from="11" to="12" type="b"/>
	<edge id="-E92" from="12" to="11" type="b"/>
	<edge id="E93" from="12" to="13" type="b"/>
	<edge id="-E93" from="13" to="12" type="b"/>
	<edge id="E94" from="13" to="14" type="b"/>
	<edge id="-E94" from="14" to="13" type="b"/>
	<edge id="E95" from="14" to="15" type="b"/>
	<edge id="-E95" from="15" to="14" type="b"/>
	<edge id="E96" from="15" to="16" type="b"/>
	<edge id="-E96" from="16" to="15" type="b"/>
	<edge id="E97" from="16" to="17" type="b"/>
	<edge id="-E97" from="17" to="16" type="b"/>
	<edge id="E98" from="17" to="18" type="b"/>
	<edge id="-E98" from="18" to="17" type="b"/>
	<edge id="E99" from="18" to="19" type="b"/>
	<edge id="-E99" from="19" to="18" type="b"/>
	<edge id="E100" from="19" to="20" type="b"/>
	<edge id="-E100" from="20" to="19" type="b"/>
	<edge id="E101" from="21" to="22" type="b"/>
	<edge id="-E101" from="22" to="21" type="b"/>
	<edge id="E102" from="22" to="23" type="b"/>
	<edge id="-E102" from="23" to="22" type="b"/>
	<edge id="E103" from="23" to="24" type="b"/>
	<edge id="-E103" from="24" to="23" type="b"/>
	<edge id="E104" from="24" to="25" type="b"/>
	<edge id="-E104" from="25" to="24" type="b"/>
	<edge id="E105" from="25" to="26" type="b"/>
	<edge id="-E105" from="26" to="25" type="b"/>
	<edge id="E106" from="26" to="27" type="b"/>
	<edge id="-E106" from="27" to="26" type="b"/>
	<edge id="E107" from="27" to="28" type="b"/>
	<edge id="-E107" from="28" to="27" type="b"/>
	<edge id="E108" from="28" to="29" type="b"/>
	<edge id="-E108" from="29" to="28" type="b"/>
	<edge id="E109" from="29" to="30" type="b"/>
	<edge id="-E109" from="30" to="29" type="b"/>
	<edge id="E110" from="30" to="31" type="b"/>
	<edge id="-E110" from="31" to="30" type="b"/>
	<edge id="E111" from="32" to="33" type="b"/>
	<edge id="-E111" from="33" to="32" type="b"/>
	<edge id="E112" from="33" to="34" type="b"/>
	<edge id="-E112" from="34" to="33" type="b"/>
	<edge id="E113" from="34" to="35" type="b"/>
	<edge id="-E113" from="35" to="34" type="b"/>
	<edge id="E114" from="35" to="36" type="b"/>
	<edge id="-E114" from="36" to="35" type="b"/>
	<edge id="E115" from="36" to="37" type="b"/>
	<edge id="-E115" from="37" to="36" type="b"/>
	<edge id="E116" from="37" to="38" type="b"/>
	<edge id="-E116" from="38" to="37" type="b"/>
	<edge id="E117" from="38" to="39" type="b"/>
	<edge id="-E117" from="39" to="38" type="b"/>
	<edge id="E118" from="39" to="40" type="b"/>
	<edge id="-E118" from="40" to="39" type="b"/>
	<edge id="E119" from="40" to="41" type="b"/>
	<edge id="-E119" from="41" to="40" type="b"/>
	<edge id="E120" from="41" to="42" type="b"/>
	<edge id="-E120" from="42" to="41" type="b"/>
	<edge id="E121" from="43" to="44" type="b"/>
	<edge id="-E121" from="44" to="43" type="b"/>
	<edge id="E122" from="44" to="45" type="b"/>
	<edge id="-E122" from="45" to="44" type="b"/>
	<edge id="E123" from="45" to="46" type="b"/>
	<edge id="-E123" from="46" to="45" type="b"/>
	<edge id="E124" from="46" to="47" type="b"/>
	<edge id="-E124" from="47" to="46" type="b"/>
	<edge id="E125" from="47" to="48" type="b"/>
	<edge id="-E125" from="48" to="47" type="b"/>
	<edge id="E126" from="48" to="49" type="b"/>
	<edge id="-E126" from="49" to="48" type="b"/>
	<edge id="E127" from="49" to="50" type="b"/>
	<edge id="-E127" from="50" to="49" type="b"/>
	<edge id="E128" from="50" to="51" type="b"/>
	<edge id="-E128" from="51" to="50" type="b"/>
	<edge id="E129" from="51" to="52" type="b"/>
	<edge id="-E129" from="52" to="51" type="b"/>
	<edge id="E130" from="52" to="53" type="b"/>
	<edge id="-E130" from="53" to="52" type="b"/>
	<edge id="E131" from="54" to="55" type="b"/>
	<edge id="-E131" from="55" to="54" type="b"/>
	<edge id="E132" from="55" to="56" type="b"/>
	<edge id="-E132" from="56" to="55" type="b"/>
	<edge id="E133" from="56" to="57" type="b"/>
	<edge id="-E133" from="57" to="56" type="b"/>
	<edge id="E134" from="57" to="58" type="b"/>
	<edge id="-E134" from="58" to="57" type="b"/>
	<edge id="E135" from="58" to="59" type="b"/>
	<edge id="-E135" from="59" to="58" type="b"/>
	<edge id="E136" from="59" to="60" type="b"/>
	<edge id="-E136" from="60" to="59" type="b"/>
	<edge id="E137" from="60" to="61" type="b"/>
	<edge id="-E137" from="61" to="60" type="b"/>
	<edge id="E138" from="61" to="62" type="b"/>
	<edge id="-E138" from="62" to="61" type="b"/>
	<edge id="E139" from="62" to="63" type="b"/>
	<edge id="-E139" from="63" to="62" type="b"/>
	<edge id="E140" from="63" to="64" type="b"/>
	<edge id="-E140" from="64" to="63" type="b"/>
	<edge id="E141" from="65" to="66" type="b"/>
	<edge id="-E141" from="66" to="65" type="b"/>
	<edge id="E142" from="66" to="67" type="b"/>
	<edge id="-E142" from="67" to="66" type="b"/>
	<edge id="E143" from="67" to="68" type="b"/>
	<edge id="-E143" from="68" to="67" type="b"/>
	<edge id="E144" from="68" to="69" type="b"/>
	<edge id="-E144" from="69" to="68" type="b"/>
	<edge id="E145" from="69" to="70" type="b"/>
	<edge id="-E145" from="70" to="69" type="b"/>
	<edge id="E146" from="70" to="71" type="b"/>
	<edge id="-E146" from="71" to="70" type="b"/>
	<edge id="E147" from="71" to="72" type="b"/>
	<edge id="-E147" from="72" to="71" type="b"/>
	<edge id="E148" from="72" to="73" type="b"/>
	<edge id="-E148" from="73" to="72" type="b"/>
	<edge id="E149" from="73" to="74" type="b"/>
	<edge id="-E149" from="74" to="73" type="b"/>
	<edge id="E150" from="74" to="75" type="b"/>
	<edge id="-E150" from="75" to="74" type="b"/>
	<edge id="E151" from="76" to="77" type="b"/>
	<edge id="-E151" from="77" to="76" type="b"/>
	<edge id="E152" from="77" to="78" type="b"/>
	<edge id="-E152" from="78" to="77" type="b"/>
	<edge id="E153" from="78" to="79" type="b"/>
	<edge id="-E153" from="79" to="78" type="b"/>
	<edge id="E154" from="79" to="80" type="b"/>
	<edge id="-E154" from="80" to="79" type="b"/>
	<edge id="E155" from="80" to="81" type="b"/>
	<edge id="-E155" from="81" to="80" type="b"/>
	<edge id="E156" from="81" to="82" type="b"/>
	<edge id="-E156" from="82" to="81" type="b"/>
	<edge id="E157" from="82" to="83" type="b"/>
	<edge id="-E157" from="83" to="82" type="b"/>
	<edge id="E158" from="83" to="84" type="b"/>
	<edge id="-E158" from="84" to="83" type="b"/>
	<edge id="E159" from="84" to="85" type="b"/>
	<edge id="-E159" from="85" to="84" type="b"/>
	<edge id="E160" from="85" to="86" type="b"/>
	<edge id="-E160" from="86" to="85" type="b"/>
	<edge id="E161" from="87" to="88" type="b"/>
	<edge id="-E161" from="88" to="87" type="b"/>
	<edge id="E162" from="88" to="89" type="b"/>
	<edge id="-E162" from="89" to="88" type="b"/>
	<edge id="E163" from="89" to="90" type="b"/>
	<edge id="-E163" from="90" to="89" type="b"/>
	<edge id="E164" from="90" to="91" type="b"/>
	<edge id="-E164" from="91" to="90" type="b"/>
	<edge id="E165" from="91" to="92" type="b"/>
	<edge id="-E165" from="92" to="91" type="b"/>
	<edge id="E166" from="92" to="93" type="b"/>
	<edge id="-E166" from="93" to="92" type="b"/>
	<edge id="E167" from="93" to="94" type="b"/>
	<edge id="-E167" from="94" to="93" type="b"/>
	<edge id="E168" from="94" to="95" type="b"/>
	<edge id="-E168" from="95" to="94" type="b"/>
	<edge id="E169" from="95" to="96" type="b"/>
	<edge id="-E169" from="96" to="95" type="b"/>
	<edge id="E170" from="96" to="97" type="b"/>
	<edge id="-E170" from="97" to="96" type="b"/>
	<edge id="E171" from="98" to="99" type="b"/>
	<edge id="-E171" from="99" to="98" type="b"/>
	<edge id="E172" from="99" to="100" type="b"/>
	<edge id="-E172" from="100" to="99" type="b"/>
	<edge id="E173" from="100" to="101" type="b"/>
	<edge id="-E173" from="101" to="100" type="b"/>
	<edge id="E174" from="101" to="102" type="b"/>
	<edge id="-E174" from="102" to="101" type="b"/>
	<edge id="E175" from="102" to="103" type="b"/>
	<edge id="-E175" from="103" to="102" type="b"/>
	<edge id="E176" from="103" to="104" type="b"/>
	<edge id="-E176" from="104" to="103" type="b"/>
	<edge id="E177" from="104" to="105" type="b"/>
	<edge id="-E177" from="105" to="104" type="b"/>
	<edge id="E178" from="105" to="106" type="b"/>
	<edge id="-E178" from="106" to="105" type="b"/>
	<edge id="E179" from="106" to="107" type="b"/>
	<edge id="-E179" from="107" to="106" type="b"/>
	<edge id="E180" from="107" to="108" type="b"/>
	<edge id="-E180" from="108" to="107" type="b"/>
</edges>
