<?xml version="1.0" encoding="UTF-8"?>
<types>
	<type id="a" priority="1" numLanes="1" speed="25"/>
	<type id="b" priority="1" numLanes="2" speed="25"/>
	<type id="c" priority="1" numLanes="3" speed="25"/>
</types>
<!-- 16.67  20.83  25  29.17  33.33 -->
<!-- netconvert -n manhattan.nod.xml -e manhattan.edg.xml -t manhattan.typ.xml - -no-turnarounds -o manhattan.net.xml -->
