[General]
cmdenv-express-mode = true
cmdenv-autoflush = true
cmdenv-status-frequency = 10000000s

#tkenv-default-config = accident
#tkenv-default-run = 1
ned-path = .

network = scenario

##########################################################
#            Simulation parameters                       #
##########################################################
debug-on-errors = true
print-undisposed = false

sim-time-limit = 3000s

**.scalar-recording = true
**.vector-recording = true

**.debug = false
**.coreDebug = false

*.playgroundSizeX = 2250m
*.playgroundSizeY = 1950m
*.playgroundSizeZ = 100m


##########################################################
# Annotation parameters                                  #
##########################################################
*.annotations.draw = false

##########################################################
#            WorldUtility parameters                     #
##########################################################
*.world.useTorus = false
*.world.use2D = false

##########################################################
#            TraCIScenarioManager parameters             #
##########################################################
*.manager.updateInterval = 1s
*.manager.host = "localhost"
*.manager.port = 9999
*.manager.moduleType = "org.car2x.veins.nodes.Vehicle"
*.manager.moduleName = "node"
*.manager.moduleDisplayString = ""
*.manager.autoShutdown = true
*.manager.margin = 25
*.manager.launchConfig = xmldoc("sumo-launchd.launch.xml")

##########################################################
#            11p specific parameters                     #
#                                                        #
#                    NIC-Settings                        #
##########################################################
*.connectionManager.sendDirect = true
*.connectionManager.pMax = 48mW
*.connectionManager.sat = -79dBm
*.connectionManager.sat2 = -83dBm
*.connectionManager.alpha = 2.0
*.connectionManager.carrierFrequency = 5.890e9 Hz

*.**.nic.mac1609_4.useServiceChannel = false
*.**.nic.mac1609_4.txPower = 48mW
*.**.nic.mac1609_4.bitrate = 6Mbps

*.node[*].nic.phy80211p.sensitivity = -79dBm
*.rsu[*].nic.phy80211p.sensitivity = -83dBm
*.uav[*].nic.phy80211p.sensitivity = -83dBm
*.**.nic.phy80211p.useThermalNoise = true
*.**.nic.phy80211p.thermalNoise = -110dBm
*.**.nic.phy80211p.decider = xmldoc("config.xml")
*.**.nic.phy80211p.analogueModels = xmldoc("config.xml")
*.**.nic.phy80211p.usePropagationDelay = true

##########################################################
#            DeployStatisticCollector SETTINGS           #
##########################################################
*.deployCollector.emitFirstUavAt = 120

##########################################################
#                       RSU SETTINGS                     #
##########################################################
*.rsu[0].posX = 1370
*.rsu[0].posY = 635
*.rsu[0].westDist = 0
*.rsu[0].eastDist = 0
*.rsu[*].posZ = normal(3.6, 0.4)
*.rsu[0].appl.totalUavNum = 3
*.rsu[0].appl.emitFirstUavAt = 120
*.rsu[0].appl.emitUavInterval = 60s
*.rsu[*].appl.headerLength = 216bits

##########################################################
#                       UAV SETTINGS                     #
##########################################################
*.uav[*].posZ = 86.9
*.uav[*].appl.headerLength = 216bits
*.uav[*].mobility.staticTrajectory = false
*.uav[*].mobility.trajectory = xmldoc("config.xml")

##########################################################
#                      AppLayer                          #
##########################################################
*.node[*].applType = "org.car2x.veins.modules.routing.GPCR"
*.node[*].appl.sendBeacons = false
*.node[*].appl.callRoutings = false
*.node[*].appl.callWarnings = false
*.node[*].appl.headerLength = 216bits
*.node[*].appl.maxStoreTime = 5s
*.node[*].appl.beaconInterval = 1s
*.node[*].appl.examineNeighborsInterval = 1.5s
*.node[*].appl.forgetMemoryInterval = 15s
*.node[*].appl.neighborElapsed = 2s
*.node[*].appl.memoryElapsed = 15s
*.node[*].appl.routingPlan = xmldoc("config.xml")
*.node[*].appl.warningPlan = xmldoc("config.xml")

##########################################################
#                      Mobility                          #
##########################################################
*.node[*].veinsmobilityType = "org.car2x.veins.modules.mobility.traci.TraCIMobility"
*.node[*].veinsmobility.x = 0
*.node[*].veinsmobility.y = 0
*.node[*].veinsmobility.z = normal(1.895, 0.1)
