<?xml version="1.0" encoding="UTF-8"?>
<edges>
	<edge id="E1" from="1" to="2" type="a"/>
	<edge id="E2" from="2" to="3" type="a"/>
	<edge id="E3" from="2" to="4" type="a"/>
	<edge id="-E1" from="2" to="1" type="a"/>
	<edge id="-E2" from="3" to="2" type="a"/>
	<edge id="-E3" from="4" to="2" type="a"/>
</edges>
