<?xml version="1.0" encoding="UTF-8"?>

<!-- generated on 2016/11/23 19:11:36 by Netedit Version 0.27.1
<?xml version="1.0" encoding="UTF-8"?>

<configuration xmlns:xsi="http://www.w3.org/2001/XMLSchema-instance" xsi:noNamespaceSchemaLocation="http://sumo.dlr.de/xsd/netedit.exeConfiguration.xsd">

    <input>
        <sumo-net-file value="D:\veins-4.4\tests\highway\highway.net.xml"/>
    </input>

    <output>
        <output-file value="D:\veins-4.4\tests\highway\highway.net.xml"/>
    </output>

    <processing>
        <no-turnarounds value="true"/>
        <offset.disable-normalization value="true"/>
        <lefthand value="false"/>
        <junctions.corner-detail value="0"/>
    </processing>

</configuration>
-->

<net version="0.27" xmlns:xsi="http://www.w3.org/2001/XMLSchema-instance" xsi:noNamespaceSchemaLocation="http://sumo.dlr.de/xsd/net_file.xsd">

    <location netOffset="0.00,0.00" convBoundary="0.08,-67.90,4949.03,244.01" origBoundary="-10000000000.00,-10000000000.00,10000000000.00,10000000000.00" projParameter="!"/>

    <edge id=":gneJ15_0" function="internal">
        <lane id=":gneJ15_0_0" index="0" speed="13.89" length="5.02" shape="224.23,90.23 224.03,88.86 223.45,87.89 222.47,87.32 221.10,87.15"/>
    </edge>
    <edge id=":gneJ15_1" function="internal">
        <lane id=":gneJ15_1_0" index="0" speed="13.89" length="9.56" shape="224.23,90.23 224.23,80.67"/>
    </edge>
    <edge id=":gneJ15_2" function="internal">
        <lane id=":gneJ15_2_0" index="0" speed="13.89" length="5.32" shape="224.23,90.23 224.63,87.40 225.83,85.38 225.93,85.32"/>
    </edge>
    <edge id=":gneJ15_12" function="internal">
        <lane id=":gneJ15_12_0" index="0" speed="13.89" length="5.05" shape="225.93,85.32 227.83,84.17 230.63,83.77"/>
    </edge>
    <edge id=":gneJ15_3" function="internal">
        <lane id=":gneJ15_3_0" index="0" speed="13.89" length="5.05" shape="230.63,87.07 229.27,87.27 228.31,87.86 227.72,88.84 227.53,90.23"/>
    </edge>
    <edge id=":gneJ15_4" function="internal">
        <lane id=":gneJ15_4_0" index="0" speed="13.89" length="9.53" shape="230.63,87.07 221.10,87.15"/>
    </edge>
    <edge id=":gneJ15_5" function="internal">
        <lane id=":gneJ15_5_0" index="0" speed="13.89" length="5.16" shape="230.63,87.07 227.83,86.67 225.83,85.47"/>
    </edge>
    <edge id=":gneJ15_13" function="internal">
        <lane id=":gneJ15_13_0" index="0" speed="13.89" length="5.16" shape="225.83,85.47 224.63,83.47 224.23,80.67"/>
    </edge>
    <edge id=":gneJ15_6" function="internal">
        <lane id=":gneJ15_6_0" index="0" speed="13.89" length="5.00" shape="227.53,80.67 227.72,82.02 228.30,82.99 229.27,83.57 230.63,83.77"/>
    </edge>
    <edge id=":gneJ15_7" function="internal">
        <lane id=":gneJ15_7_0" index="0" speed="13.89" length="9.56" shape="227.53,80.67 227.53,90.23"/>
    </edge>
    <edge id=":gneJ15_8" function="internal">
        <lane id=":gneJ15_8_0" index="0" speed="13.89" length="5.28" shape="227.53,80.67 227.13,83.46 225.92,85.48 225.83,85.53"/>
    </edge>
    <edge id=":gneJ15_14" function="internal">
        <lane id=":gneJ15_14_0" index="0" speed="13.89" length="5.09" shape="225.83,85.53 223.91,86.71 221.10,87.15"/>
    </edge>
    <edge id=":gneJ15_9" function="internal">
        <lane id=":gneJ15_9_0" index="0" speed="13.89" length="5.11" shape="221.05,83.85 222.44,83.63 223.43,83.03 224.03,82.04 224.23,80.67"/>
    </edge>
    <edge id=":gneJ15_10" function="internal">
        <lane id=":gneJ15_10_0" index="0" speed="13.89" length="9.58" shape="221.05,83.85 230.63,83.77"/>
    </edge>
    <edge id=":gneJ15_11" function="internal">
        <lane id=":gneJ15_11_0" index="0" speed="13.89" length="5.34" shape="221.05,83.85 223.88,84.21 225.91,85.39 225.98,85.51"/>
    </edge>
    <edge id=":gneJ15_15" function="internal">
        <lane id=":gneJ15_15_0" index="0" speed="13.89" length="5.07" shape="225.98,85.51 227.12,87.40 227.53,90.23"/>
    </edge>
    <edge id=":gneJ16_0" function="internal">
        <lane id=":gneJ16_0_0" index="0" speed="13.89" length="5.12" shape="4747.92,87.35 4747.72,85.92 4747.14,84.91 4746.17,84.30 4744.82,84.10"/>
    </edge>
    <edge id=":gneJ16_1" function="internal">
        <lane id=":gneJ16_1_0" index="0" speed="13.89" length="9.65" shape="4747.92,87.35 4747.92,77.70"/>
    </edge>
    <edge id=":gneJ16_2" function="internal">
        <lane id=":gneJ16_2_0" index="0" speed="13.89" length="5.28" shape="4747.92,87.35 4748.33,84.46 4749.57,82.45"/>
    </edge>
    <edge id=":gneJ16_12" function="internal">
        <lane id=":gneJ16_12_0" index="0" speed="13.89" length="5.28" shape="4749.57,82.45 4751.63,81.30 4754.53,81.01"/>
    </edge>
    <edge id=":gneJ16_3" function="internal">
        <lane id=":gneJ16_3_0" index="0" speed="13.89" length="5.05" shape="4754.39,84.31 4753.00,84.44 4752.01,85.00 4751.42,85.96 4751.22,87.34"/>
    </edge>
    <edge id=":gneJ16_4" function="internal">
        <lane id=":gneJ16_4_0" index="0" speed="13.89" length="9.57" shape="4754.39,84.31 4744.82,84.10"/>
    </edge>
    <edge id=":gneJ16_5" function="internal">
        <lane id=":gneJ16_5_0" index="0" speed="13.89" length="5.27" shape="4754.39,84.31 4751.55,83.79 4749.53,82.51"/>
    </edge>
    <edge id=":gneJ16_13" function="internal">
        <lane id=":gneJ16_13_0" index="0" speed="13.89" length="5.18" shape="4749.53,82.51 4748.32,80.48 4747.92,77.70"/>
    </edge>
    <edge id=":gneJ16_6" function="internal">
        <lane id=":gneJ16_6_0" index="0" speed="13.89" length="5.28" shape="4751.22,77.71 4751.43,79.10 4752.05,80.11 4753.08,80.75 4754.53,81.01"/>
    </edge>
    <edge id=":gneJ16_7" function="internal">
        <lane id=":gneJ16_7_0" index="0" speed="13.89" length="9.63" shape="4751.22,77.71 4751.22,87.34"/>
    </edge>
    <edge id=":gneJ16_8" function="internal">
        <lane id=":gneJ16_8_0" index="0" speed="13.89" length="5.26" shape="4751.22,77.71 4750.82,80.50 4749.61,82.50 4749.52,82.55"/>
    </edge>
    <edge id=":gneJ16_14" function="internal">
        <lane id=":gneJ16_14_0" index="0" speed="13.89" length="5.05" shape="4749.52,82.55 4747.61,83.70 4744.82,84.10"/>
    </edge>
    <edge id=":gneJ16_9" function="internal">
        <lane id=":gneJ16_9_0" index="0" speed="13.89" length="5.00" shape="4744.81,80.80 4746.17,80.60 4747.14,80.02 4747.73,79.05 4747.92,77.70"/>
    </edge>
    <edge id=":gneJ16_10" function="internal">
        <lane id=":gneJ16_10_0" index="0" speed="13.89" length="9.72" shape="4744.81,80.80 4754.53,81.01"/>
    </edge>
    <edge id=":gneJ16_11" function="internal">
        <lane id=":gneJ16_11_0" index="0" speed="13.89" length="5.38" shape="4744.81,80.80 4747.61,81.20 4749.61,82.43 4749.71,82.60"/>
    </edge>
    <edge id=":gneJ16_15" function="internal">
        <lane id=":gneJ16_15_0" index="0" speed="13.89" length="5.07" shape="4749.71,82.60 4750.82,84.48 4751.22,87.34"/>
    </edge>

    <edge id="-gneE12" from="gneJ15" to="gneJ14" priority="1">
        <lane id="-gneE12_0" index="0" speed="13.89" length="221.03" shape="221.10,87.15 0.11,90.89"/>
    </edge>
    <edge id="-gneE13" from="gneJ16" to="gneJ15" priority="1">
        <lane id="-gneE13_0" index="0" speed="13.89" length="4514.18" shape="4744.82,84.10 230.63,87.07"/>
    </edge>
    <edge id="-gneE14" from="gneJ17" to="gneJ16" priority="1">
        <lane id="-gneE14_0" index="0" speed="13.89" length="194.76" shape="4948.96,92.80 4754.39,84.31"/>
    </edge>
    <edge id="-gneE15" from="gneJ18" to="gneJ15" priority="1">
        <lane id="-gneE15_0" index="0" speed="13.89" length="153.78" shape="224.23,244.01 224.23,90.23"/>
    </edge>
    <edge id="-gneE16" from="gneJ19" to="gneJ15" priority="1">
        <lane id="-gneE16_0" index="0" speed="13.89" length="148.57" shape="227.53,-67.90 227.53,80.67"/>
    </edge>
    <edge id="-gneE17" from="gneJ20" to="gneJ16" priority="1">
        <lane id="-gneE17_0" index="0" speed="13.89" length="141.04" shape="4748.13,228.39 4747.92,87.35"/>
    </edge>
    <edge id="-gneE18" from="gneJ21" to="gneJ16" priority="1">
        <lane id="-gneE18_0" index="0" speed="13.89" length="145.25" shape="4751.54,-67.55 4751.22,77.71"/>
    </edge>
    <edge id="gneE12" from="gneJ14" to="gneJ15" priority="1">
        <lane id="gneE12_0" index="0" speed="13.89" length="221.03" shape="0.05,87.59 221.05,83.85"/>
    </edge>
    <edge id="gneE13" from="gneJ15" to="gneJ16" priority="1">
        <lane id="gneE13_0" index="0" speed="13.89" length="4514.18" shape="230.63,83.77 4744.81,80.80"/>
    </edge>
    <edge id="gneE14" from="gneJ16" to="gneJ17" priority="1">
        <lane id="gneE14_0" index="0" speed="13.89" length="194.76" shape="4754.53,81.01 4949.10,89.50"/>
    </edge>
    <edge id="gneE15" from="gneJ15" to="gneJ18" priority="1">
        <lane id="gneE15_0" index="0" speed="13.89" length="153.78" shape="227.53,90.23 227.53,244.01"/>
    </edge>
    <edge id="gneE16" from="gneJ15" to="gneJ19" priority="1">
        <lane id="gneE16_0" index="0" speed="13.89" length="148.57" shape="224.23,80.67 224.23,-67.90"/>
    </edge>
    <edge id="gneE17" from="gneJ16" to="gneJ20" priority="1">
        <lane id="gneE17_0" index="0" speed="13.89" length="141.04" shape="4751.22,87.34 4751.43,228.38"/>
    </edge>
    <edge id="gneE18" from="gneJ16" to="gneJ21" priority="1">
        <lane id="gneE18_0" index="0" speed="13.89" length="145.25" shape="4747.92,77.70 4748.24,-67.55"/>
    </edge>

    <tlLogic id="gneJ15" type="static" programID="0" offset="0">
        <phase duration="10" state="rrrGGgrrrGGg"/>
        <phase duration="3" state="rrryygrrryyg"/>
        <phase duration="10" state="GGgrrrGGgrrr"/>
        <phase duration="3" state="yygrrryygrrr"/>
    </tlLogic>
    <tlLogic id="gneJ16" type="static" programID="0" offset="0">
        <phase duration="12" state="rrrGGgrrrGGg"/>
        <phase duration="3" state="rrryygrrryyg"/>
        <phase duration="12" state="GGgrrrGGgrrr"/>
        <phase duration="3" state="yygrrryygrrr"/>
    </tlLogic>

    <junction id="gneJ14" type="dead_end" x="0.08" y="89.24" incLanes="-gneE12_0" intLanes="" shape="0.08,89.19 0.02,85.99 0.13,92.49 0.08,89.29"/>
    <junction id="gneJ15" type="traffic_light" x="225.88" y="85.42" incLanes="-gneE15_0 -gneE13_0 -gneE16_0 gneE12_0" intLanes=":gneJ15_0_0 :gneJ15_1_0 :gneJ15_12_0 :gneJ15_3_0 :gneJ15_4_0 :gneJ15_13_0 :gneJ15_6_0 :gneJ15_7_0 :gneJ15_14_0 :gneJ15_9_0 :gneJ15_10_0 :gneJ15_15_0" shape="222.63,90.23 229.13,90.23 230.63,88.67 230.63,82.17 229.13,80.67 222.63,80.67 221.02,82.25 221.13,88.75">
        <request index="0" response="000000000000" foes="000100010000" cont="0"/>
        <request index="1" response="000000000000" foes="111100110000" cont="0"/>
        <request index="2" response="000011000000" foes="110011110000" cont="1"/>
        <request index="3" response="000010000000" foes="100010000000" cont="0"/>
        <request index="4" response="000110000111" foes="100110000111" cont="0"/>
        <request index="5" response="011110000110" foes="011110000110" cont="1"/>
        <request index="6" response="000000000000" foes="010000000100" cont="0"/>
        <request index="7" response="000000000000" foes="110000111100" cont="0"/>
        <request index="8" response="000000000011" foes="110000110011" cont="1"/>
        <request index="9" response="000000000010" foes="000000100010" cont="0"/>
        <request index="10" response="000111000110" foes="000111100110" cont="0"/>
        <request index="11" response="000110011110" foes="000110011110" cont="1"/>
    </junction>
    <junction id="gneJ16" type="traffic_light" x="4749.56" y="82.44" incLanes="-gneE17_0 -gneE14_0 -gneE18_0 gneE13_0" intLanes=":gneJ16_0_0 :gneJ16_1_0 :gneJ16_12_0 :gneJ16_3_0 :gneJ16_4_0 :gneJ16_13_0 :gneJ16_6_0 :gneJ16_7_0 :gneJ16_14_0 :gneJ16_9_0 :gneJ16_10_0 :gneJ16_15_0" shape="4746.32,87.35 4752.82,87.34 4754.32,85.90 4754.60,79.41 4752.82,77.71 4746.32,77.70 4744.81,79.20 4744.82,85.70">
        <request index="0" response="000000000000" foes="000100010000" cont="0"/>
        <request index="1" response="000000000000" foes="111100110000" cont="0"/>
        <request index="2" response="000011000000" foes="110011110000" cont="1"/>
        <request index="3" response="000010000000" foes="100010000000" cont="0"/>
        <request index="4" response="000110000111" foes="100110000111" cont="0"/>
        <request index="5" response="011110000110" foes="011110000110" cont="1"/>
        <request index="6" response="000000000000" foes="010000000100" cont="0"/>
        <request index="7" response="000000000000" foes="110000111100" cont="0"/>
        <request index="8" response="000000000011" foes="110000110011" cont="1"/>
        <request index="9" response="000000000010" foes="000000100010" cont="0"/>
        <request index="10" response="000111000110" foes="000111100110" cont="0"/>
        <request index="11" response="000110011110" foes="000110011110" cont="1"/>
    </junction>
    <junction id="gneJ17" type="dead_end" x="4949.03" y="91.15" incLanes="gneE14_0" intLanes="" shape="4949.03,91.20 4948.89,94.40 4949.17,87.91 4949.03,91.10"/>
    <junction id="gneJ18" type="dead_end" x="225.88" y="244.01" incLanes="gneE15_0" intLanes="" shape="225.83,244.01 222.63,244.01 229.13,244.01 225.93,244.01"/>
    <junction id="gneJ19" type="dead_end" x="225.88" y="-67.90" incLanes="gneE16_0" intLanes="" shape="225.93,-67.90 229.13,-67.90 222.63,-67.90 225.83,-67.90"/>
    <junction id="gneJ20" type="dead_end" x="4749.78" y="228.38" incLanes="gneE17_0" intLanes="" shape="4749.73,228.38 4746.53,228.39 4753.03,228.38 4749.83,228.38"/>
    <junction id="gneJ21" type="dead_end" x="4749.89" y="-67.55" incLanes="gneE18_0" intLanes="" shape="4749.94,-67.55 4753.14,-67.54 4746.64,-67.56 4749.84,-67.55"/>

    <junction id=":gneJ15_12_0" type="internal" x="225.93" y="85.32" incLanes=":gneJ15_2_0 -gneE16_0" intLanes=":gneJ15_4_0 :gneJ15_5_0 :gneJ15_6_0 :gneJ15_7_0 :gneJ15_10_0 :gneJ15_11_0"/>
    <junction id=":gneJ15_13_0" type="internal" x="225.83" y="85.47" incLanes=":gneJ15_5_0 gneE12_0" intLanes=":gneJ15_1_0 :gneJ15_2_0 :gneJ15_7_0 :gneJ15_8_0 :gneJ15_9_0 :gneJ15_10_0"/>
    <junction id=":gneJ15_14_0" type="internal" x="225.83" y="85.53" incLanes=":gneJ15_8_0 -gneE15_0" intLanes=":gneJ15_0_0 :gneJ15_1_0 :gneJ15_4_0 :gneJ15_5_0 :gneJ15_10_0 :gneJ15_11_0"/>
    <junction id=":gneJ15_15_0" type="internal" x="225.98" y="85.51" incLanes=":gneJ15_11_0 -gneE13_0" intLanes=":gneJ15_1_0 :gneJ15_2_0 :gneJ15_3_0 :gneJ15_4_0 :gneJ15_7_0 :gneJ15_8_0"/>
    <junction id=":gneJ16_12_0" type="internal" x="4749.57" y="82.45" incLanes=":gneJ16_2_0 -gneE18_0" intLanes=":gneJ16_4_0 :gneJ16_5_0 :gneJ16_6_0 :gneJ16_7_0 :gneJ16_10_0 :gneJ16_11_0"/>
    <junction id=":gneJ16_13_0" type="internal" x="4749.53" y="82.51" incLanes=":gneJ16_5_0 gneE13_0" intLanes=":gneJ16_1_0 :gneJ16_2_0 :gneJ16_7_0 :gneJ16_8_0 :gneJ16_9_0 :gneJ16_10_0"/>
    <junction id=":gneJ16_14_0" type="internal" x="4749.52" y="82.55" incLanes=":gneJ16_8_0 -gneE17_0" intLanes=":gneJ16_0_0 :gneJ16_1_0 :gneJ16_4_0 :gneJ16_5_0 :gneJ16_10_0 :gneJ16_11_0"/>
    <junction id=":gneJ16_15_0" type="internal" x="4749.71" y="82.60" incLanes=":gneJ16_11_0 -gneE14_0" intLanes=":gneJ16_1_0 :gneJ16_2_0 :gneJ16_3_0 :gneJ16_4_0 :gneJ16_7_0 :gneJ16_8_0"/>

    <connection from="-gneE13" to="gneE15" fromLane="0" toLane="0" via=":gneJ15_3_0" tl="gneJ15" linkIndex="3" dir="r" state="o"/>
    <connection from="-gneE13" to="-gneE12" fromLane="0" toLane="0" via=":gneJ15_4_0" tl="gneJ15" linkIndex="4" dir="s" state="o"/>
    <connection from="-gneE13" to="gneE16" fromLane="0" toLane="0" via=":gneJ15_5_0" tl="gneJ15" linkIndex="5" dir="l" state="o"/>
    <connection from="-gneE14" to="gneE17" fromLane="0" toLane="0" via=":gneJ16_3_0" tl="gneJ16" linkIndex="0" dir="r" state="o"/>
    <connection from="-gneE14" to="-gneE13" fromLane="0" toLane="0" via=":gneJ16_4_0" tl="gneJ16" linkIndex="1" dir="s" state="o"/>
    <connection from="-gneE14" to="gneE18" fromLane="0" toLane="0" via=":gneJ16_5_0" tl="gneJ16" linkIndex="2" dir="l" state="o"/>
    <connection from="-gneE15" to="-gneE12" fromLane="0" toLane="0" via=":gneJ15_0_0" tl="gneJ15" linkIndex="0" dir="r" state="o"/>
    <connection from="-gneE15" to="gneE16" fromLane="0" toLane="0" via=":gneJ15_1_0" tl="gneJ15" linkIndex="1" dir="s" state="o"/>
    <connection from="-gneE15" to="gneE13" fromLane="0" toLane="0" via=":gneJ15_2_0" tl="gneJ15" linkIndex="2" dir="l" state="o"/>
    <connection from="-gneE16" to="gneE13" fromLane="0" toLane="0" via=":gneJ15_6_0" tl="gneJ15" linkIndex="6" dir="r" state="o"/>
    <connection from="-gneE16" to="gneE15" fromLane="0" toLane="0" via=":gneJ15_7_0" tl="gneJ15" linkIndex="7" dir="s" state="o"/>
    <connection from="-gneE16" to="-gneE12" fromLane="0" toLane="0" via=":gneJ15_8_0" tl="gneJ15" linkIndex="8" dir="l" state="o"/>
    <connection from="-gneE17" to="-gneE13" fromLane="0" toLane="0" via=":gneJ16_0_0" tl="gneJ16" linkIndex="9" dir="r" state="o"/>
    <connection from="-gneE17" to="gneE18" fromLane="0" toLane="0" via=":gneJ16_1_0" tl="gneJ16" linkIndex="10" dir="s" state="o"/>
    <connection from="-gneE17" to="gneE14" fromLane="0" toLane="0" via=":gneJ16_2_0" tl="gneJ16" linkIndex="11" dir="l" state="o"/>
    <connection from="-gneE18" to="gneE14" fromLane="0" toLane="0" via=":gneJ16_6_0" tl="gneJ16" linkIndex="3" dir="r" state="o"/>
    <connection from="-gneE18" to="gneE17" fromLane="0" toLane="0" via=":gneJ16_7_0" tl="gneJ16" linkIndex="4" dir="s" state="o"/>
    <connection from="-gneE18" to="-gneE13" fromLane="0" toLane="0" via=":gneJ16_8_0" tl="gneJ16" linkIndex="5" dir="l" state="o"/>
    <connection from="gneE12" to="gneE16" fromLane="0" toLane="0" via=":gneJ15_9_0" tl="gneJ15" linkIndex="9" dir="r" state="o"/>
    <connection from="gneE12" to="gneE13" fromLane="0" toLane="0" via=":gneJ15_10_0" tl="gneJ15" linkIndex="10" dir="s" state="o"/>
    <connection from="gneE12" to="gneE15" fromLane="0" toLane="0" via=":gneJ15_11_0" tl="gneJ15" linkIndex="11" dir="l" state="o"/>
    <connection from="gneE13" to="gneE18" fromLane="0" toLane="0" via=":gneJ16_9_0" tl="gneJ16" linkIndex="6" dir="r" state="o"/>
    <connection from="gneE13" to="gneE14" fromLane="0" toLane="0" via=":gneJ16_10_0" tl="gneJ16" linkIndex="7" dir="s" state="o"/>
    <connection from="gneE13" to="gneE17" fromLane="0" toLane="0" via=":gneJ16_11_0" tl="gneJ16" linkIndex="8" dir="l" state="o"/>

    <connection from=":gneJ15_0" to="-gneE12" fromLane="0" toLane="0" dir="s" state="M"/>
    <connection from=":gneJ15_1" to="gneE16" fromLane="0" toLane="0" dir="s" state="M"/>
    <connection from=":gneJ15_2" to="gneE13" fromLane="0" toLane="0" via=":gneJ15_12_0" dir="s" state="m"/>
    <connection from=":gneJ15_12" to="gneE13" fromLane="0" toLane="0" dir="s" state="M"/>
    <connection from=":gneJ15_3" to="gneE15" fromLane="0" toLane="0" dir="s" state="M"/>
    <connection from=":gneJ15_4" to="-gneE12" fromLane="0" toLane="0" dir="s" state="M"/>
    <connection from=":gneJ15_5" to="gneE16" fromLane="0" toLane="0" via=":gneJ15_13_0" dir="s" state="m"/>
    <connection from=":gneJ15_13" to="gneE16" fromLane="0" toLane="0" dir="s" state="M"/>
    <connection from=":gneJ15_6" to="gneE13" fromLane="0" toLane="0" dir="s" state="M"/>
    <connection from=":gneJ15_7" to="gneE15" fromLane="0" toLane="0" dir="s" state="M"/>
    <connection from=":gneJ15_8" to="-gneE12" fromLane="0" toLane="0" via=":gneJ15_14_0" dir="s" state="m"/>
    <connection from=":gneJ15_14" to="-gneE12" fromLane="0" toLane="0" dir="s" state="M"/>
    <connection from=":gneJ15_9" to="gneE16" fromLane="0" toLane="0" dir="s" state="M"/>
    <connection from=":gneJ15_10" to="gneE13" fromLane="0" toLane="0" dir="s" state="M"/>
    <connection from=":gneJ15_11" to="gneE15" fromLane="0" toLane="0" via=":gneJ15_15_0" dir="s" state="m"/>
    <connection from=":gneJ15_15" to="gneE15" fromLane="0" toLane="0" dir="s" state="M"/>
    <connection from=":gneJ16_0" to="-gneE13" fromLane="0" toLane="0" dir="s" state="M"/>
    <connection from=":gneJ16_1" to="gneE18" fromLane="0" toLane="0" dir="s" state="M"/>
    <connection from=":gneJ16_2" to="gneE14" fromLane="0" toLane="0" via=":gneJ16_12_0" dir="s" state="m"/>
    <connection from=":gneJ16_12" to="gneE14" fromLane="0" toLane="0" dir="s" state="M"/>
    <connection from=":gneJ16_3" to="gneE17" fromLane="0" toLane="0" dir="s" state="M"/>
    <connection from=":gneJ16_4" to="-gneE13" fromLane="0" toLane="0" dir="s" state="M"/>
    <connection from=":gneJ16_5" to="gneE18" fromLane="0" toLane="0" via=":gneJ16_13_0" dir="s" state="m"/>
    <connection from=":gneJ16_13" to="gneE18" fromLane="0" toLane="0" dir="s" state="M"/>
    <connection from=":gneJ16_6" to="gneE14" fromLane="0" toLane="0" dir="s" state="M"/>
    <connection from=":gneJ16_7" to="gneE17" fromLane="0" toLane="0" dir="s" state="M"/>
    <connection from=":gneJ16_8" to="-gneE13" fromLane="0" toLane="0" via=":gneJ16_14_0" dir="s" state="m"/>
    <connection from=":gneJ16_14" to="-gneE13" fromLane="0" toLane="0" dir="s" state="M"/>
    <connection from=":gneJ16_9" to="gneE18" fromLane="0" toLane="0" dir="s" state="M"/>
    <connection from=":gneJ16_10" to="gneE14" fromLane="0" toLane="0" dir="s" state="M"/>
    <connection from=":gneJ16_11" to="gneE17" fromLane="0" toLane="0" via=":gneJ16_15_0" dir="s" state="m"/>
    <connection from=":gneJ16_15" to="gneE17" fromLane="0" toLane="0" dir="s" state="M"/>

</net>
