<?xml version="1.0" encoding="UTF-8"?>

<!-- generated on Mon 07 Aug 2017 08:53:38 PM CST by Netedit Version 0.27.1
<?xml version="1.0" encoding="UTF-8"?>

<configuration xmlns:xsi="http://www.w3.org/2001/XMLSchema-instance" xsi:noNamespaceSchemaLocation="http://sumo.dlr.de/xsd/netedit.exeConfiguration.xsd">

    <input>
        <sumo-net-file value="/home/xule/Simulation/veins/tests/highway_notls/highway_notls.net.xml"/>
    </input>

    <output>
        <output-file value="/home/xule/Simulation/veins/tests/highway_notls/highway_notls.net.xml"/>
    </output>

    <processing>
        <no-turnarounds value="true"/>
        <offset.disable-normalization value="true"/>
        <lefthand value="false"/>
        <junctions.corner-detail value="0"/>
    </processing>

</configuration>
-->

<net version="0.27" xmlns:xsi="http://www.w3.org/2001/XMLSchema-instance" xsi:noNamespaceSchemaLocation="http://sumo.dlr.de/xsd/net_file.xsd">

    <location netOffset="-20.00,-20.00" convBoundary="0.00,0.00,9960.00,150.00" origBoundary="20.00,20.00,9980.00,170.00" projParameter="!"/>

    <edge id=":2_0" function="internal">
        <lane id=":2_0_0" index="0" speed="25.00" length="5.00" shape="4978.35,4.75 4978.16,3.39 4977.58,2.43 4976.61,1.84 4975.25,1.65"/>
    </edge>
    <edge id=":2_1" function="internal">
        <lane id=":2_1_0" index="0" speed="25.00" length="10.32" shape="4978.35,4.75 4978.75,1.95 4979.95,-0.05 4981.95,-1.25 4984.75,-1.65"/>
    </edge>
    <edge id=":2_2" function="internal">
        <lane id=":2_2_0" index="0" speed="25.00" length="4.82" shape="4978.35,4.75 4979.17,3.51 4980.00,3.10 4980.82,3.51 4981.65,4.75"/>
    </edge>
    <edge id=":2_3" function="internal">
        <lane id=":2_3_0" index="0" speed="25.00" length="5.00" shape="4984.75,1.65 4983.39,1.84 4982.42,2.42 4981.84,3.39 4981.65,4.75"/>
    </edge>
    <edge id=":2_4" function="internal">
        <lane id=":2_4_0" index="0" speed="25.00" length="9.50" shape="4984.75,1.65 4975.25,1.65"/>
    </edge>
    <edge id=":2_5" function="internal">
        <lane id=":2_5_0" index="0" speed="25.00" length="2.41" shape="4984.75,1.65 4983.51,0.83 4983.10,0.00"/>
    </edge>
    <edge id=":2_9" function="internal">
        <lane id=":2_9_0" index="0" speed="25.00" length="2.41" shape="4983.10,0.00 4983.51,-0.83 4984.75,-1.65"/>
    </edge>
    <edge id=":2_6" function="internal">
        <lane id=":2_6_0" index="0" speed="25.00" length="9.50" shape="4975.25,-1.65 4984.75,-1.65"/>
    </edge>
    <edge id=":2_7" function="internal">
        <lane id=":2_7_0" index="0" speed="25.00" length="5.28" shape="4975.25,-1.65 4978.05,-1.25 4980.05,-0.05 4980.11,0.05"/>
    </edge>
    <edge id=":2_8" function="internal">
        <lane id=":2_8_0" index="0" speed="25.00" length="2.41" shape="4975.25,-1.65 4976.49,-0.83 4976.90,0.00"/>
    </edge>
    <edge id=":2_10" function="internal">
        <lane id=":2_10_0" index="0" speed="25.00" length="5.04" shape="4980.11,0.05 4981.25,1.95 4981.65,4.75"/>
    </edge>
    <edge id=":2_11" function="internal">
        <lane id=":2_11_0" index="0" speed="25.00" length="2.41" shape="4976.90,0.00 4976.49,0.83 4975.25,1.65"/>
    </edge>

    <edge id="-E1" from="2" to="1" priority="1" type="a">
        <lane id="-E1_0" index="0" speed="25.00" length="4975.25" shape="4975.25,1.65 0.00,1.65"/>
    </edge>
    <edge id="-E2" from="3" to="2" priority="1" type="a">
        <lane id="-E2_0" index="0" speed="25.00" length="4975.25" shape="9960.00,1.65 4984.75,1.65"/>
    </edge>
    <edge id="-E3" from="4" to="2" priority="1" type="a">
        <lane id="-E3_0" index="0" speed="25.00" length="145.25" shape="4978.35,150.00 4978.35,4.75"/>
    </edge>
    <edge id="E1" from="1" to="2" priority="1" type="a">
        <lane id="E1_0" index="0" speed="25.00" length="4975.25" shape="0.00,-1.65 4975.25,-1.65"/>
    </edge>
    <edge id="E2" from="2" to="3" priority="1" type="a">
        <lane id="E2_0" index="0" speed="25.00" length="4975.25" shape="4984.75,-1.65 9960.00,-1.65"/>
    </edge>
    <edge id="E3" from="2" to="4" priority="1" type="a">
        <lane id="E3_0" index="0" speed="25.00" length="145.25" shape="4981.65,4.75 4981.65,150.00"/>
    </edge>

    <junction id="1" type="dead_end" x="0.00" y="0.00" incLanes="-E1_0" intLanes="" shape="0.00,-0.05 0.00,-3.25 0.00,3.25 0.00,0.05"/>
    <junction id="2" type="priority" x="4980.00" y="0.00" incLanes="-E3_0 -E2_0 E1_0" intLanes=":2_0_0 :2_1_0 :2_2_0 :2_3_0 :2_4_0 :2_9_0 :2_6_0 :2_10_0 :2_11_0" shape="4976.75,4.75 4983.25,4.75 4984.75,3.25 4984.75,-3.25 4975.25,-3.25 4975.25,3.25">
        <request index="0" response="000010000" foes="100010000" cont="0"/>
        <request index="1" response="011010000" foes="011110000" cont="0"/>
        <request index="2" response="010001000" foes="010001000" cont="0"/>
        <request index="3" response="000000000" foes="010000100" cont="0"/>
        <request index="4" response="000000000" foes="110000011" cont="0"/>
        <request index="5" response="001000010" foes="001000010" cont="1"/>
        <request index="6" response="000000000" foes="000100010" cont="0"/>
        <request index="7" response="000011000" foes="000011110" cont="1"/>
        <request index="8" response="000010001" foes="000010001" cont="1"/>
    </junction>
    <junction id="3" type="dead_end" x="9960.00" y="0.00" incLanes="E2_0" intLanes="" shape="9960.00,0.05 9960.00,3.25 9960.00,-3.25 9960.00,-0.05"/>
    <junction id="4" type="dead_end" x="4980.00" y="150.00" incLanes="E3_0" intLanes="" shape="4979.95,150.00 4976.75,150.00 4983.25,150.00 4980.05,150.00"/>

    <junction id=":2_9_0" type="internal" x="4983.10" y="0.00" incLanes=":2_5_0 -E3_0 E1_0" intLanes=":2_1_0 :2_6_0"/>
    <junction id=":2_10_0" type="internal" x="4980.11" y="0.05" incLanes=":2_7_0 -E2_0" intLanes=":2_1_0 :2_2_0 :2_3_0 :2_4_0"/>
    <junction id=":2_11_0" type="internal" x="4976.90" y="0.00" incLanes=":2_8_0 -E2_0 -E3_0" intLanes=":2_0_0 :2_4_0"/>

    <connection from="-E2" to="E3" fromLane="0" toLane="0" via=":2_3_0" dir="r" state="M"/>
    <connection from="-E2" to="-E1" fromLane="0" toLane="0" via=":2_4_0" dir="s" state="M"/>
    <connection from="-E2" to="E2" fromLane="0" toLane="0" via=":2_5_0" dir="t" state="m"/>
    <connection from="-E3" to="-E1" fromLane="0" toLane="0" via=":2_0_0" dir="r" state="m"/>
    <connection from="-E3" to="E2" fromLane="0" toLane="0" via=":2_1_0" dir="l" state="m"/>
    <connection from="-E3" to="E3" fromLane="0" toLane="0" via=":2_2_0" dir="t" state="m"/>
    <connection from="E1" to="E2" fromLane="0" toLane="0" via=":2_6_0" dir="s" state="M"/>
    <connection from="E1" to="E3" fromLane="0" toLane="0" via=":2_7_0" dir="l" state="m"/>
    <connection from="E1" to="-E1" fromLane="0" toLane="0" via=":2_8_0" dir="t" state="m"/>

    <connection from=":2_0" to="-E1" fromLane="0" toLane="0" dir="s" state="M"/>
    <connection from=":2_1" to="E2" fromLane="0" toLane="0" dir="s" state="M"/>
    <connection from=":2_2" to="E3" fromLane="0" toLane="0" dir="s" state="M"/>
    <connection from=":2_3" to="E3" fromLane="0" toLane="0" dir="s" state="M"/>
    <connection from=":2_4" to="-E1" fromLane="0" toLane="0" dir="s" state="M"/>
    <connection from=":2_5" to="E2" fromLane="0" toLane="0" via=":2_9_0" dir="s" state="m"/>
    <connection from=":2_9" to="E2" fromLane="0" toLane="0" dir="s" state="M"/>
    <connection from=":2_6" to="E2" fromLane="0" toLane="0" dir="s" state="M"/>
    <connection from=":2_7" to="E3" fromLane="0" toLane="0" via=":2_10_0" dir="s" state="m"/>
    <connection from=":2_10" to="E3" fromLane="0" toLane="0" dir="s" state="M"/>
    <connection from=":2_8" to="-E1" fromLane="0" toLane="0" via=":2_11_0" dir="s" state="m"/>
    <connection from=":2_11" to="-E1" fromLane="0" toLane="0" dir="s" state="M"/>

</net>
