<routes>
	<vType id="Car" accel="2.6" decel="4.5" carFollowModel="Krauss" sigma="1.0" length="5" minGap="5" maxSpeed="33.3"/>
	<route id="route0" edges="E1 E2"></route>
	<route id="route1" edges="-E2 -E1"></route>
	<flow id="flow0" type="Car" route="route0" begin="0" end="1800" probability="0.1" departSpeed="16.7" color="1,1,0"></flow>
	<flow id="flow1" type="Car" route="route1" begin="0" end="1800" probability="0.1" departSpeed="16.7" color="1,1,0"></flow>
</routes>
