<?xml version="1.0" encoding="UTF-8"?>
<connections>
	<connection from="E1" to="E2" fromLane="0" toLane="0" pass="true"/>
	<connection from="E1" to="E3" fromLane="0" toLane="0" pass="true"/>
	<connection from="-E2" to="-E1" fromLane="0" toLane="0" pass="true"/>
	<connection from="-E2" to="E3" fromLane="0" toLane="0" pass="true"/>
	<connection from="-E3" to="E2" fromLane="0" toLane="0" pass="true"/>
	<connection from="-E3" to="-E1" fromLane="0" toLane="0" pass="true"/>
</connections>
