[General]
cmdenv-express-mode = true
cmdenv-autoflush = true
cmdenv-status-frequency = 10000000s
rng-class="cLCG32"

#tkenv-default-config = accident
#tkenv-default-run = 1
ned-path = .

network = scenario

##########################################################
#            Simulation parameters                       #
##########################################################
debug-on-errors = true
print-undisposed = false

sim-time-limit = 2000s

**.scalar-recording = true
**.vector-recording = true

**.debug = false
**.coreDebug = false

*.playgroundSizeX = 10000m
*.playgroundSizeY = 300m
*.playgroundSizeZ = 100m


##########################################################
# Annotation parameters                                  #
##########################################################
*.annotations.draw = false

##########################################################
# Obstacle parameters                                    #
##########################################################
*.obstacles.debug = false

##########################################################
#            WorldUtility parameters                     #
##########################################################
*.world.useTorus = false
*.world.use2D = false

##########################################################
#            TraCIScenarioManager parameters             #
##########################################################
*.manager.updateInterval = 1s
*.manager.host = "localhost"
*.manager.port = 9999
*.manager.moduleType = "org.car2x.veins.nodes.Vehicle"
*.manager.moduleName = "node"
*.manager.moduleDisplayString = ""
*.manager.autoShutdown = true
*.manager.margin = 25
*.manager.launchConfig = xmldoc("sumo-launchd.launch.xml")

##########################################################
#            11p specific parameters                     #
#                                                        #
#                    NIC-Settings                        #
##########################################################
*.connectionManager.sendDirect = true
*.connectionManager.pMax = 48mW
*.connectionManager.sat = -79dBm
*.connectionManager.alpha = 2.0
*.connectionManager.carrierFrequency = 5.890e9 Hz

*.**.nic.mac1609_4.useServiceChannel = false
*.**.nic.mac1609_4.txPower = 48mW
*.**.nic.mac1609_4.bitrate = 6Mbps

*.**.nic.phy80211p.sensitivity = -79dBm
*.**.nic.phy80211p.useThermalNoise = true
*.**.nic.phy80211p.thermalNoise = -110dBm
*.**.nic.phy80211p.decider = xmldoc("config.xml")
*.**.nic.phy80211p.analogueModels = xmldoc("config.xml")
*.**.nic.phy80211p.usePropagationDelay = true

##########################################################
#                    Content Collector                   #
##########################################################
*.contentCollector.slotNum = 8
*.contentCollector.contentSize = 30MB
*.contentCollector.contentQuality = 2400kbps
*.contentCollector.cellularRate = 3000kbps
*.contentCollector.trafficDensity = 720vph
*.contentCollector.deployInterval = 1500m
*.contentCollector.isComparison = false

##########################################################
#                       RSU SETTINGS                     #
##########################################################
#*.rsu[0].posX = 500
#*.rsu[0].posY = 166.5
#*.rsu[0].westDist = 500
#*.rsu[0].eastDist = 1000
#*.rsu[1].posX = 1500
#*.rsu[1].posY = 166.5
#*.rsu[1].westDist = 1000
#*.rsu[1].eastDist = 1000
#*.rsu[2].posX = 2500
#*.rsu[2].posY = 166.5
#*.rsu[2].westDist = 1000
#*.rsu[2].eastDist = 1000
#*.rsu[3].posX = 3500
#*.rsu[3].posY = 166.5
#*.rsu[3].westDist = 1000
#*.rsu[3].eastDist = 1000
#*.rsu[4].posX = 4500
#*.rsu[4].posY = 166.5
#*.rsu[4].westDist = 1000
#*.rsu[4].eastDist = 1000
#*.rsu[5].posX = 5500
#*.rsu[5].posY = 166.5
#*.rsu[5].westDist = 1000
#*.rsu[5].eastDist = 1000
#*.rsu[6].posX = 6500
#*.rsu[6].posY = 166.5
#*.rsu[6].westDist = 1000
#*.rsu[6].eastDist = 1000
#*.rsu[7].posX = 7500
#*.rsu[7].posY = 166.5
#*.rsu[7].westDist = 1000
#*.rsu[7].eastDist = 1000
#*.rsu[8].posX = 8500
#*.rsu[8].posY = 166.5
#*.rsu[8].westDist = 1000
#*.rsu[8].eastDist = 1000
#*.rsu[9].posX = 9500
#*.rsu[9].posY = 166.5
#*.rsu[9].westDist = 1000
#*.rsu[9].eastDist = 500
#*.rsu[0].posX = 500
#*.rsu[0].posY = 166.5
#*.rsu[0].westDist = 500
#*.rsu[0].eastDist = 1125
#*.rsu[1].posX = 1625
#*.rsu[1].posY = 166.5
#*.rsu[1].westDist = 1125
#*.rsu[1].eastDist = 1125
#*.rsu[2].posX = 2750
#*.rsu[2].posY = 166.5
#*.rsu[2].westDist = 1125
#*.rsu[2].eastDist = 1125
#*.rsu[3].posX = 3875
#*.rsu[3].posY = 166.5
#*.rsu[3].westDist = 1125
#*.rsu[3].eastDist = 1125
#*.rsu[4].posX = 5000
#*.rsu[4].posY = 166.5
#*.rsu[4].westDist = 1125
#*.rsu[4].eastDist = 1125
#*.rsu[5].posX = 6125
#*.rsu[5].posY = 166.5
#*.rsu[5].westDist = 1125
#*.rsu[5].eastDist = 1125
#*.rsu[6].posX = 7250
#*.rsu[6].posY = 166.5
#*.rsu[6].westDist = 1125
#*.rsu[6].eastDist = 1125
#*.rsu[7].posX = 8375
#*.rsu[7].posY = 166.5
#*.rsu[7].westDist = 1125
#*.rsu[7].eastDist = 1125
#*.rsu[8].posX = 9500
#*.rsu[8].posY = 166.5
#*.rsu[8].westDist = 1125
#*.rsu[8].eastDist = 500
#*.rsu[0].posX = 500
#*.rsu[0].posY = 166.5
#*.rsu[0].westDist = 500
#*.rsu[0].eastDist = 1286
#*.rsu[1].posX = 1786
#*.rsu[1].posY = 166.5
#*.rsu[1].westDist = 1286
#*.rsu[1].eastDist = 1286
#*.rsu[2].posX = 3072
#*.rsu[2].posY = 166.5
#*.rsu[2].westDist = 1286
#*.rsu[2].eastDist = 1286
#*.rsu[3].posX = 4358
#*.rsu[3].posY = 166.5
#*.rsu[3].westDist = 1286
#*.rsu[3].eastDist = 1284
#*.rsu[4].posX = 5642
#*.rsu[4].posY = 166.5
#*.rsu[4].westDist = 1284
#*.rsu[4].eastDist = 1286
#*.rsu[5].posX = 6928
#*.rsu[5].posY = 166.5
#*.rsu[5].westDist = 1286
#*.rsu[5].eastDist = 1286
#*.rsu[6].posX = 8214
#*.rsu[6].posY = 166.5
#*.rsu[6].westDist = 1286
#*.rsu[6].eastDist = 1286
#*.rsu[7].posX = 9500
#*.rsu[7].posY = 166.5
#*.rsu[7].westDist = 1286
#*.rsu[7].eastDist = 500
*.rsu[0].posX = 500
*.rsu[0].posY = 166.5
*.rsu[0].westDist = 500
*.rsu[0].eastDist = 1500
*.rsu[1].posX = 2000
*.rsu[1].posY = 166.5
*.rsu[1].westDist = 1500
*.rsu[1].eastDist = 1500
*.rsu[2].posX = 3500
*.rsu[2].posY = 166.5
*.rsu[2].westDist = 1500
*.rsu[2].eastDist = 1500
*.rsu[3].posX = 5000
*.rsu[3].posY = 166.5
*.rsu[3].westDist = 1500
*.rsu[3].eastDist = 1500
*.rsu[4].posX = 6500
*.rsu[4].posY = 166.5
*.rsu[4].westDist = 1500
*.rsu[4].eastDist = 1500
*.rsu[5].posX = 8000
*.rsu[5].posY = 166.5
*.rsu[5].westDist = 1500
*.rsu[5].eastDist = 1500
*.rsu[6].posX = 9500
*.rsu[6].posY = 166.5
*.rsu[6].westDist = 1500
*.rsu[6].eastDist = 500
#*.rsu[0].posX = 500
#*.rsu[0].posY = 166.5
#*.rsu[0].westDist = 500
#*.rsu[0].eastDist = 1800
#*.rsu[1].posX = 2300
#*.rsu[1].posY = 166.5
#*.rsu[1].westDist = 1800
#*.rsu[1].eastDist = 1800
#*.rsu[2].posX = 4100
#*.rsu[2].posY = 166.5
#*.rsu[2].westDist = 1800
#*.rsu[2].eastDist = 1800
#*.rsu[3].posX = 5900
#*.rsu[3].posY = 166.5
#*.rsu[3].westDist = 1800
#*.rsu[3].eastDist = 1800
#*.rsu[4].posX = 7700
#*.rsu[4].posY = 166.5
#*.rsu[4].westDist = 1800
#*.rsu[4].eastDist = 1800
#*.rsu[5].posX = 9500
#*.rsu[5].posY = 166.5
#*.rsu[5].westDist = 1800
#*.rsu[5].eastDist = 500
*.rsu[*].posZ = 3.6
*.rsu[*].appl.helpRoutings = false
*.rsu[*].appl.sendWarnings = false
*.rsu[*].appl.dataOnSch = false
*.rsu[*].appl.examineVehiclesInterval = 2s
*.rsu[*].appl.forgetMemoryInterval = 15s
*.rsu[*].appl.vehicleElapsed = 3s
*.rsu[*].appl.memoryElapsed = 15s
*.rsu[*].appl.warningPlan = xmldoc("config.xml")
*.dummyRSU.posX = 5000
*.dummyRSU.posY = 266.5
*.dummyRSU.posZ = 3.6

##########################################################
#                      AppLayer                          #
##########################################################
*.node[*].applType = "org.car2x.veins.modules.application.ContentClient"
*.node[*].appl.sendBeacons = true
*.node[*].appl.callRoutings = false
*.node[*].appl.callWarnings = false
*.node[*].appl.callContents = true
*.node[*].appl.dataOnSch = false
*.node[*].appl.beaconPriority = 2
*.node[*].appl.routingPriority = 1
*.node[*].appl.warningPriority = 0
*.node[*].appl.contentPriority = 3
*.node[*].appl.dataPriority = 3
*.node[*].appl.maxHopConstraint = 6
*.node[*].appl.maxOffset = 0.001s
*.node[*].appl.maxStoreTime = 5s
*.node[*].appl.beaconInterval = 1s
*.node[*].appl.examineNeighborsInterval = 2s
*.node[*].appl.forgetMemoryInterval = 20s
*.node[*].appl.neighborElapsed = 3s
*.node[*].appl.memoryElapsed = 20s
*.node[*].appl.codeRate = 2400kbps
*.node[*].appl.routingPlan = xmldoc("config.xml")
*.node[*].appl.warningPlan = xmldoc("config.xml")
*.node[*].appl.contentPlan = xmldoc("config.xml")

##########################################################
#                      Mobility                          #
##########################################################
*.node[*].veinsmobilityType = "org.car2x.veins.modules.mobility.traci.TraCIMobility"
*.node[*].veinsmobility.debug = true
*.node[*].veinsmobility.x = 0
*.node[*].veinsmobility.y = 0
*.node[*].veinsmobility.z = 1.895
*.node[*].veinsmobility.accidentCount = 0
