<?xml version="1.0" encoding="UTF-8"?>
<nodes>
	<node id="1" x="20.0" y="20.0" />
	<node id="2" x="1080.0" y="20.0" />
	<node id="3" x="2140.0" y="20.0" />
	<node id="4" x="1080.0" y="170.0" />
</nodes>
