[General]
cmdenv-express-mode = true
cmdenv-autoflush = true
cmdenv-status-frequency = 10000000s

#tkenv-default-config = accident
#tkenv-default-run = 1
ned-path = .

network = scenario

##########################################################
#            Simulation parameters                       #
##########################################################
debug-on-errors = true
print-undisposed = false

sim-time-limit = 1500s

**.scalar-recording = true
**.vector-recording = true

**.debug = false
**.coreDebug = false

*.playgroundSizeX = 2200m
*.playgroundSizeY = 300m
*.playgroundSizeZ = 100m


##########################################################
# Annotation parameters                                  #
##########################################################
*.annotations.draw = false

##########################################################
#            WorldUtility parameters                     #
##########################################################
*.world.useTorus = false
*.world.use2D = false

##########################################################
#            TraCIScenarioManager parameters             #
##########################################################
*.manager.updateInterval = 1s
*.manager.host = "localhost"
*.manager.port = 9999
*.manager.moduleType = "org.car2x.veins.nodes.Vehicle"
*.manager.moduleName = "node"
*.manager.moduleDisplayString = ""
*.manager.autoShutdown = true
*.manager.margin = 25
*.manager.launchConfig = xmldoc("sumo-launchd.launch.xml")

##########################################################
#            11p specific parameters                     #
#                                                        #
#                    NIC-Settings                        #
##########################################################
*.connectionManager.sendDirect = true
*.connectionManager.pMax = 48mW
*.connectionManager.sat = -79dBm
*.connectionManager.sat2 = -85dBm
*.connectionManager.alpha = 2.0
*.connectionManager.carrierFrequency = 5.890e9 Hz

*.**.nic.mac1609_4.useServiceChannel = false
*.**.nic.mac1609_4.txPower = 48mW
*.**.nic.mac1609_4.bitrate = 6Mbps
*.**.nic.mac1609_4.useAcks = true

*.node[*].nic.phy80211p.sensitivity = -79dBm
*.rsu[*].nic.phy80211p.sensitivity = -85dBm
*.uav[*].nic.phy80211p.sensitivity = -85dBm
*.**.nic.phy80211p.useThermalNoise = true
*.**.nic.phy80211p.thermalNoise = -110dBm
*.**.nic.phy80211p.decider = xmldoc("config.xml")
*.**.nic.phy80211p.analogueModels = xmldoc("config.xml")
*.**.nic.phy80211p.usePropagationDelay = true

##########################################################
#                       RSU SETTINGS                     #
##########################################################
*.rsu[0].posX = 400
*.rsu[0].posY = 166.5
*.rsu[0].westDist = 0
*.rsu[0].eastDist = 1400
*.rsu[1].posX = 1800
*.rsu[1].posY = 166.5
*.rsu[1].westDist = 1400
*.rsu[1].eastDist = 0
*.rsu[*].posZ = normal(3.6, 0.4)
*.rsu[*].appl.dataOnSch = false
*.rsu[*].appl.examineVehiclesInterval = 1.5s
*.rsu[*].appl.forgetMemoryInterval = 15s
*.rsu[*].appl.vehicleElapsed = 2s
*.rsu[*].appl.memoryElapsed = 15s

##########################################################
#                       UAV SETTINGS                     #
##########################################################
*.uav[0].posX = 600
*.uav[0].posY = 146.5
*.uav[1].posX = 800
*.uav[1].posY = 186.5
*.uav[*].posZ = 30.0
*.uav[*].appl.dataOnSch = false
*.uav[*].appl.beaconInterval = 1s
*.uav[*].appl.examineVehiclesInterval = 1.5s
*.uav[*].appl.examineNeighborsInterval = 1.5s
*.uav[*].appl.vehicleElapsed = 2s
*.uav[*].appl.neighborElapsed = 2s
*.uav[*].mobility.staticTrajectory = true
*.uav[*].mobility.circularTrajectory = false
*.uav[*].mobility.trajectory = xmldoc("config.xml")

##########################################################
#                      AppLayer                          #
##########################################################
*.node[*].applType = "org.car2x.veins.modules.routing.GPCR"
*.node[*].appl.headerLength = 184bit
*.node[*].appl.sendBeacons = true
*.node[*].appl.callRoutings = false
*.node[*].appl.callWarnings = false
*.node[*].appl.dataOnSch = false
*.node[*].appl.maxStoreTime = 5s
*.node[*].appl.beaconInterval = 1s
*.node[*].appl.examineNeighborsInterval = 1.5s
*.node[*].appl.forgetMemoryInterval = 15s
*.node[*].appl.neighborElapsed = 2s
*.node[*].appl.memoryElapsed = 15s
*.node[*].appl.routingPlan = xmldoc("config.xml")
*.node[*].appl.warningPlan = xmldoc("config.xml")

##########################################################
#                      Mobility                          #
##########################################################
*.node[*].veinsmobilityType = "org.car2x.veins.modules.mobility.traci.TraCIMobility"
*.node[*].veinsmobility.x = 0
*.node[*].veinsmobility.y = 0
*.node[*].veinsmobility.z = normal(1.895, 0.1)
