<?xml version="1.0" encoding="UTF-8"?>

<!-- generated on 2017/1/7 14:08:24 by Netedit Version 0.27.1
<?xml version="1.0" encoding="UTF-8"?>

<configuration xmlns:xsi="http://www.w3.org/2001/XMLSchema-instance" xsi:noNamespaceSchemaLocation="http://sumo.dlr.de/xsd/netedit.exeConfiguration.xsd">

    <input>
        <sumo-net-file value="D:\veins-4.4\tests\multilane_notls\multilane_notls.net.xml"/>
    </input>

    <output>
        <output-file value="D:\veins-4.4\tests\multilane_notls\multilane_notls.net.xml"/>
    </output>

    <processing>
        <no-turnarounds value="true"/>
        <offset.disable-normalization value="true"/>
        <lefthand value="false"/>
        <junctions.corner-detail value="0"/>
    </processing>

</configuration>
-->

<net version="0.27" xmlns:xsi="http://www.w3.org/2001/XMLSchema-instance" xsi:noNamespaceSchemaLocation="http://sumo.dlr.de/xsd/net_file.xsd">

    <location netOffset="0.00,0.00" convBoundary="200.21,-98.12,3176.90,99.57" origBoundary="-10000000000.00,-10000000000.00,10000000000.00,10000000000.00" projParameter="!"/>

    <edge id=":gneJ1_0" function="internal">
        <lane id=":gneJ1_0_0" index="0" speed="11.11" length="7.78" shape="3005.40,9.20 3003.21,9.44 3001.83,10.16 3000.63,11.36 2998.99,13.00"/>
    </edge>
    <edge id=":gneJ1_1" function="internal">
        <lane id=":gneJ1_1_0" index="0" speed="13.89" length="7.87" shape="3005.40,9.20 2997.53,9.21"/>
        <lane id=":gneJ1_1_1" index="1" speed="13.89" length="7.87" shape="3005.40,5.90 2997.53,5.91"/>
        <lane id=":gneJ1_1_2" index="2" speed="13.89" length="7.87" shape="3005.40,2.60 2997.53,2.61"/>
    </edge>
    <edge id=":gneJ1_4" function="internal">
        <lane id=":gneJ1_4_0" index="0" speed="11.11" length="7.66" shape="2999.12,-11.08 3000.73,-9.45 3001.91,-8.27 3003.26,-7.55 3005.41,-7.30"/>
    </edge>
    <edge id=":gneJ1_5" function="internal">
        <lane id=":gneJ1_5_0" index="0" speed="8.33" length="28.17" shape="2999.12,-11.08 3004.10,-5.06 3005.73,0.96 3004.03,6.98 2998.99,13.00"/>
    </edge>
    <edge id=":gneJ1_6" function="internal">
        <lane id=":gneJ1_6_0" index="0" speed="11.11" length="25.29" shape="2999.12,-11.08 3006.05,-3.66 3008.10,1.65 3005.26,4.84 2997.53,5.91"/>
        <lane id=":gneJ1_6_1" index="1" speed="11.11" length="25.29" shape="2999.12,-11.08 3004.68,-5.10 3006.27,-0.82 3003.89,1.75 2997.53,2.61"/>
    </edge>
    <edge id=":gneJ1_8" function="internal">
        <lane id=":gneJ1_8_0" index="0" speed="13.89" length="7.88" shape="2997.52,-7.29 3005.41,-7.30"/>
        <lane id=":gneJ1_8_1" index="1" speed="13.89" length="7.88" shape="2997.52,-3.99 3005.41,-4.00"/>
        <lane id=":gneJ1_8_2" index="2" speed="13.89" length="7.88" shape="2997.53,-0.69 3005.40,-0.70"/>
    </edge>
    <edge id=":gneJ1_11" function="internal">
        <lane id=":gneJ1_11_0" index="0" speed="11.11" length="7.56" shape="2997.53,-0.69 3003.89,0.16 3004.67,1.00"/>
    </edge>
    <edge id=":gneJ1_12" function="internal">
        <lane id=":gneJ1_12_0" index="0" speed="11.11" length="15.16" shape="3004.67,1.00 3006.26,2.73 3004.62,7.01 2998.99,13.00"/>
    </edge>

    <edge id="-gneE0" from="gneJ1" to="gneJ0" priority="1">
        <lane id="-gneE0_0" index="0" speed="8.33" length="2797.32" shape="2997.53,9.21 200.22,11.28"/>
        <lane id="-gneE0_1" index="1" speed="11.11" length="2797.32" shape="2997.53,5.91 200.21,7.98"/>
        <lane id="-gneE0_2" index="2" speed="13.89" length="2797.32" shape="2997.53,2.61 200.21,4.68"/>
    </edge>
    <edge id="-gneE1" from="gneJ2" to="gneJ1" priority="1">
        <lane id="-gneE1_0" index="0" speed="8.33" length="171.49" shape="3176.89,9.31 3005.40,9.20"/>
        <lane id="-gneE1_1" index="1" speed="11.11" length="171.49" shape="3176.89,6.01 3005.40,5.90"/>
        <lane id="-gneE1_2" index="2" speed="13.89" length="171.49" shape="3176.90,2.71 3005.40,2.60"/>
    </edge>
    <edge id="gneE0" from="gneJ0" to="gneJ1" priority="1">
        <lane id="gneE0_0" index="0" speed="8.33" length="2797.32" shape="200.20,-5.22 2997.52,-7.29"/>
        <lane id="gneE0_1" index="1" speed="11.11" length="2797.32" shape="200.21,-1.92 2997.52,-3.99"/>
        <lane id="gneE0_2" index="2" speed="13.89" length="2797.32" shape="200.21,1.38 2997.53,-0.69"/>
    </edge>
    <edge id="gneE1" from="gneJ1" to="gneJ2" priority="1">
        <lane id="gneE1_0" index="0" speed="8.33" length="171.49" shape="3005.41,-7.30 3176.90,-7.19"/>
        <lane id="gneE1_1" index="1" speed="11.11" length="171.49" shape="3005.41,-4.00 3176.90,-3.89"/>
        <lane id="gneE1_2" index="2" speed="13.89" length="171.49" shape="3005.40,-0.70 3176.90,-0.59"/>
    </edge>
    <edge id="gneE4" from="gneJ5" to="gneJ1" priority="1">
        <lane id="gneE4_0" index="0" speed="8.33" length="131.49" shape="2901.65,-99.34 2999.12,-11.08"/>
    </edge>
    <edge id="gneE6" from="gneJ1" to="gneJ8" priority="1">
        <lane id="gneE6_0" index="0" speed="8.33" length="131.49" shape="2998.99,13.00 2901.10,100.80"/>
    </edge>

    <junction id="gneJ0" type="dead_end" x="200.21" y="3.03" incLanes="-gneE0_0 -gneE0_1 -gneE0_2" intLanes="" shape="200.21,2.98 200.20,-6.82 200.22,12.88 200.21,3.08"/>
    <junction id="gneJ1" type="priority" x="3009.95" y="0.95" incLanes="-gneE1_0 -gneE1_1 -gneE1_2 gneE4_0 gneE0_0 gneE0_1 gneE0_2" intLanes=":gneJ1_0_0 :gneJ1_1_0 :gneJ1_1_1 :gneJ1_1_2 :gneJ1_4_0 :gneJ1_5_0 :gneJ1_6_0 :gneJ1_6_1 :gneJ1_8_0 :gneJ1_8_1 :gneJ1_8_2 :gneJ1_12_0" shape="3005.40,10.80 3005.41,-8.90 3000.19,-12.27 2998.04,-9.90 2997.52,-8.89 2997.53,10.81 2997.92,11.81 3000.05,14.19">
        <request index="0" response="000000000000" foes="100000100000" cont="0"/>
        <request index="1" response="000000000000" foes="100011100000" cont="0"/>
        <request index="2" response="000000000000" foes="100011100000" cont="0"/>
        <request index="3" response="000000000000" foes="100011100000" cont="0"/>
        <request index="4" response="011100000000" foes="011100000000" cont="0"/>
        <request index="5" response="111100001111" foes="111100001111" cont="0"/>
        <request index="6" response="111100001110" foes="111100001110" cont="0"/>
        <request index="7" response="111100001110" foes="111100001110" cont="0"/>
        <request index="8" response="000000000000" foes="000011110000" cont="0"/>
        <request index="9" response="000000000000" foes="000011110000" cont="0"/>
        <request index="10" response="000000000000" foes="000011110000" cont="0"/>
        <request index="11" response="000000001111" foes="000011101111" cont="1"/>
    </junction>
    <junction id="gneJ2" type="dead_end" x="3176.90" y="1.06" incLanes="gneE1_0 gneE1_1 gneE1_2" intLanes="" shape="3176.90,1.11 3176.89,10.91 3176.90,-8.79 3176.90,1.01"/>
    <junction id="gneJ5" type="unregulated" x="2900.54" y="-98.12" incLanes="" intLanes="" shape="2900.57,-98.16 2902.72,-100.53"/>
    <junction id="gneJ8" type="unregulated" x="2900.00" y="99.57" incLanes="gneE6_0" intLanes="" shape="2902.17,101.99 2900.03,99.61"/>

    <junction id=":gneJ1_12_0" type="internal" x="3004.67" y="1.00" incLanes=":gneJ1_11_0 -gneE1_0 -gneE1_1 -gneE1_2" intLanes=":gneJ1_0_0 :gneJ1_1_0 :gneJ1_1_1 :gneJ1_1_2 :gneJ1_5_0 :gneJ1_6_0 :gneJ1_6_1"/>

    <connection from="-gneE1" to="gneE6" fromLane="0" toLane="0" via=":gneJ1_0_0" dir="s" state="M"/>
    <connection from="-gneE1" to="-gneE0" fromLane="0" toLane="0" via=":gneJ1_1_0" dir="s" state="M"/>
    <connection from="-gneE1" to="-gneE0" fromLane="1" toLane="1" via=":gneJ1_1_1" dir="s" state="M"/>
    <connection from="-gneE1" to="-gneE0" fromLane="2" toLane="2" via=":gneJ1_1_2" dir="s" state="M"/>
    <connection from="gneE0" to="gneE1" fromLane="0" toLane="0" via=":gneJ1_8_0" dir="s" state="M"/>
    <connection from="gneE0" to="gneE1" fromLane="1" toLane="1" via=":gneJ1_8_1" dir="s" state="M"/>
    <connection from="gneE0" to="gneE1" fromLane="2" toLane="2" via=":gneJ1_8_2" dir="s" state="M"/>
    <connection from="gneE0" to="gneE6" fromLane="2" toLane="0" via=":gneJ1_11_0" dir="l" state="m"/>
    <connection from="gneE4" to="gneE1" fromLane="0" toLane="0" via=":gneJ1_4_0" dir="s" state="m"/>
    <connection from="gneE4" to="gneE6" fromLane="0" toLane="0" via=":gneJ1_5_0" dir="L" state="m"/>
    <connection from="gneE4" to="-gneE0" fromLane="0" toLane="1" via=":gneJ1_6_0" dir="l" state="m"/>
    <connection from="gneE4" to="-gneE0" fromLane="0" toLane="2" via=":gneJ1_6_1" dir="l" state="m"/>

    <connection from=":gneJ1_0" to="gneE6" fromLane="0" toLane="0" dir="s" state="M"/>
    <connection from=":gneJ1_1" to="-gneE0" fromLane="0" toLane="0" dir="s" state="M"/>
    <connection from=":gneJ1_1" to="-gneE0" fromLane="1" toLane="1" dir="s" state="M"/>
    <connection from=":gneJ1_1" to="-gneE0" fromLane="2" toLane="2" dir="s" state="M"/>
    <connection from=":gneJ1_4" to="gneE1" fromLane="0" toLane="0" dir="s" state="M"/>
    <connection from=":gneJ1_5" to="gneE6" fromLane="0" toLane="0" dir="s" state="M"/>
    <connection from=":gneJ1_6" to="-gneE0" fromLane="0" toLane="1" dir="s" state="M"/>
    <connection from=":gneJ1_6" to="-gneE0" fromLane="1" toLane="2" dir="s" state="M"/>
    <connection from=":gneJ1_8" to="gneE1" fromLane="0" toLane="0" dir="s" state="M"/>
    <connection from=":gneJ1_8" to="gneE1" fromLane="1" toLane="1" dir="s" state="M"/>
    <connection from=":gneJ1_8" to="gneE1" fromLane="2" toLane="2" dir="s" state="M"/>
    <connection from=":gneJ1_11" to="gneE6" fromLane="0" toLane="0" via=":gneJ1_12_0" dir="s" state="m"/>
    <connection from=":gneJ1_12" to="gneE6" fromLane="0" toLane="0" dir="s" state="M"/>

</net>
