<routes>
	<vType id="vtype0" accel="3" decel="9.81" sigma="0.5" length="3.5" minGap="2.5" maxSpeed="50"/>
	<route id="route0" edges="gneE0 gneE1"></route>
	<route id="route1" edges="-gneE1 -gneE0"></route>
	<flow id="flow0" type="vtype0" route="route0" begin="0" period="12" number="8" departLane="0" departSpeed="max"/>
	<!--<flow id="flow1" type="vtype0" route="route1" begin="0" period="12" number="8" departLane="0" departSpeed="max"/>-->
	<flow id="flow2" type="vtype0" route="route0" begin="40" period="12" number="8" departLane="1" departSpeed="max"/>
	<!--<flow id="flow3" type="vtype0" route="route1" begin="40" period="12" number="8" departLane="1" departSpeed="max"/>-->
	<flow id="flow4" type="vtype0" route="route0" begin="80" period="12" number="8" departLane="2" departSpeed="max"/>
	<!--<flow id="flow5" type="vtype0" route="route1" begin="80" period="12" number="8" departLane="2" departSpeed="max"/>-->
</routes>
