[General]
cmdenv-express-mode = true
cmdenv-autoflush = true
cmdenv-status-frequency = 10000000s

#tkenv-default-config = accident
#tkenv-default-run = 1
ned-path = .

network = scenario

##########################################################
#            Simulation parameters                       #
##########################################################
debug-on-errors = true
print-undisposed = false

sim-time-limit = 500s

**.scalar-recording = true
**.vector-recording = true

**.debug = false
**.coreDebug = false

*.playgroundSizeX = 3000m
*.playgroundSizeY = 200m
*.playgroundSizeZ = 100m


##########################################################
# Annotation parameters                                  #
##########################################################
*.annotations.draw = false

##########################################################
# Obstacle parameters                                    #
##########################################################
*.obstacles.debug = false

##########################################################
#            WorldUtility parameters                     #
##########################################################
*.world.useTorus = false
*.world.use2D = false

##########################################################
#            TraCIScenarioManager parameters             #
##########################################################
*.manager.updateInterval = 1s
*.manager.host = "localhost"
*.manager.port = 9999
*.manager.moduleType = "org.car2x.veins.nodes.Vehicle"
*.manager.moduleName = "node"
*.manager.moduleDisplayString = ""
*.manager.autoShutdown = true
*.manager.margin = 25
*.manager.seed = -1
*.manager.launchConfig = xmldoc("sumo-launchd.launch.xml")

##########################################################
#            11p specific parameters                     #
#                                                        #
#                    NIC-Settings                        #
##########################################################
*.connectionManager.pMax = 20mW
*.connectionManager.sat = -89dBm
*.connectionManager.alpha = 2.0
*.connectionManager.carrierFrequency = 5.890e9 Hz
*.connectionManager.sendDirect = true

*.**.nic.mac1609_4.useServiceChannel = false
*.**.nic.mac1609_4.txPower = 20mW
*.**.nic.mac1609_4.bitrate = 18Mbps

*.**.nic.phy80211p.sensitivity = -89dBm
*.**.nic.phy80211p.useThermalNoise = true
*.**.nic.phy80211p.thermalNoise = -110dBm
*.**.nic.phy80211p.decider = xmldoc("config.xml")
*.**.nic.phy80211p.analogueModels = xmldoc("config.xml")
*.**.nic.phy80211p.usePropagationDelay = true

##########################################################
#                      AppLayer                          #
##########################################################
*.node[*].applType = "org.car2x.veins.modules.routing.GPCR"
*.node[*].appl.debug = true
*.node[*].appl.headerLength = 256 bit
*.node[*].appl.sendBeacons = true
*.node[*].appl.callRoutings = false
*.node[*].appl.callWarnings = true
*.node[*].appl.sendData = false
*.node[*].appl.dataOnSch = true
*.node[*].appl.beaconPriority = 3
*.node[*].appl.routingPriority = 3
*.node[*].appl.warningPriority = 1
*.node[*].appl.dataPriority = 2
*.node[*].appl.maxHopConstraint = 6
*.node[*].appl.maxOffset = 0.001s
*.node[*].appl.maxStoreTime = 2s
*.node[*].appl.beaconInterval = 1s
*.node[*].appl.examineNeighborsInterval = 2s
*.node[*].appl.forgetMemoryInterval = 20s
*.node[*].appl.neighborElapsed = 3s
*.node[*].appl.memoryElapsed = 20s
*.node[*].appl.routingPlan = xmldoc("config.xml")
*.node[*].appl.warningPlan = xmldoc("config.xml")

##########################################################
#                      Mobility                          #
##########################################################
*.node[*].veinsmobilityType = "org.car2x.veins.modules.mobility.traci.TraCIMobility"
*.node[*].veinsmobility.x = 0
*.node[*].veinsmobility.y = 0
*.node[*].veinsmobility.z = normal(1.895, 0.1)
*.node[*].veinsmobility.accidentCount = 0
