<?xml version="1.0" encoding="iso-8859-1"?>

<configuration xmlns:xsi="http://www.w3.org/2001/XMLSchema-instance" xsi:noNamespaceSchemaLocation="http://sumo.sf.net/xsd/sumoConfiguration.xsd">

    <input>
        <net-file value="multilane_notls.net.xml"/>
        <route-files value="multilane_notls.rou.xml"/>
    </input>

    <time>
        <begin value="0"/>
        <end value="500"/>
    </time>
</configuration>
