<routes>
	<vType id="vtype0" accel="3" decel="9.81" sigma="0.5" length="3.5" minGap="2.5" maxSpeed="50"/>
	<route id="route0" edges="gneE1 gneE2 gneE3 gneE4 gneE5 gneE6"></route>
	<route id="route1" edges="-gneE6 -gneE5 -gneE4 -gneE3 -gneE2 -gneE1"></route>
	<route id="route2" edges="-gneE53 -gneE41 -gneE40 gneE47 gneE48 gneE56"></route>
	<route id="route3" edges="-gneE56 -gneE48 -gneE47 gneE40 gneE41 gneE53"></route>
	<route id="route4" edges="gneE51 gneE24 gneE25 gneE26 gneE27 gneE52"></route>
	<route id="route5" edges="-gneE52 -gneE27 -gneE26 -gneE25 -gneE24 -gneE51"></route>
	<route id="route6" edges="gneE54 gneE28 gneE29 gneE30 gneE31 gneE55"></route>
	<route id="route7" edges="-gneE55 -gneE31 -gneE30 -gneE29 -gneE28 -gneE54"></route>
	<route id="route8" edges="-gneE12 -gneE11 -gneE10 gneE13 gneE14 gneE15"></route>
	<route id="route9" edges="-gneE15 -gneE14 -gneE13 gneE10 gneE11 gneE12"></route>
	<route id="route10" edges="-gneE34 -gneE33 -gneE32 gneE35 gneE36 gneE37"></route>
	<route id="route11" edges="-gneE37 -gneE36 -gneE35 gneE32 gneE33 gneE34"></route>
	<route id="route12" edges="gneE1 gneE2 gneE3 gneE40 gneE41 gneE53"></route>
	<route id="route13" edges="gneE1 gneE2 gneE3 gneE47 gneE48 gneE56"></route>
	<route id="route14" edges="-gneE6 -gneE5 -gneE4 gneE40 gneE41 gneE53"></route>
	<route id="route15" edges="-gneE6 -gneE5 -gneE4 gneE47 gneE48 gneE56"></route>
	<flow id="flow0" type="vtype0" route="route0" begin="0" period="8" number="4" departLane="0" departSpeed="max"/>
	<flow id="flow1" type="vtype0" route="route1" begin="0" period="8" number="4" departLane="0" departSpeed="max"/>
	<flow id="flow2" type="vtype0" route="route2" begin="0" period="8" number="4" departLane="0" departSpeed="max"/>
	<flow id="flow3" type="vtype0" route="route3" begin="0" period="8" number="4" departLane="0" departSpeed="max"/>
	<flow id="flow4" type="vtype0" route="route12" begin="4" period="8" number="2" departLane="0" departSpeed="max"/>
	<flow id="flow5" type="vtype0" route="route13" begin="4" period="8" number="2" departLane="0" departSpeed="max"/>
	<flow id="flow6" type="vtype0" route="route14" begin="4" period="8" number="2" departLane="0" departSpeed="max"/>
	<flow id="flow7" type="vtype0" route="route15" begin="4" period="8" number="2" departLane="0" departSpeed="max"/>
	<!--
	<flow id="flow4" type="vtype0" route="route4" begin="0" period="8" number="16" departLane="0" departSpeed="max"/>
	<flow id="flow5" type="vtype0" route="route5" begin="0" period="8" number="16" departLane="0" departSpeed="max"/>
	<flow id="flow6" type="vtype0" route="route6" begin="0" period="8" number="16" departLane="0" departSpeed="max"/>
	<flow id="flow7" type="vtype0" route="route7" begin="0" period="8" number="16" departLane="0" departSpeed="max"/>
	<flow id="flow8" type="vtype0" route="route8" begin="0" period="8" number="16" departLane="0" departSpeed="max"/>
	<flow id="flow9" type="vtype0" route="route9" begin="0" period="8" number="16" departLane="0" departSpeed="max"/>
	<flow id="flow10" type="vtype0" route="route10" begin="0" period="8" number="16" departLane="0" departSpeed="max"/>
	<flow id="flow11" type="vtype0" route="route11" begin="0" period="8" number="16" departLane="0" departSpeed="max"/>
	-->
	<flow id="flow12" type="vtype0" route="route0" begin="32" period="8" number="4" departLane="1" departSpeed="max"/>
	<flow id="flow13" type="vtype0" route="route1" begin="32" period="8" number="4" departLane="1" departSpeed="max"/>
	<flow id="flow14" type="vtype0" route="route2" begin="32" period="8" number="4" departLane="1" departSpeed="max"/>
	<flow id="flow15" type="vtype0" route="route3" begin="32" period="8" number="4" departLane="1" departSpeed="max"/>
	<!--
	<flow id="flow16" type="vtype0" route="route4" begin="20" period="8" number="16" departLane="1" departSpeed="max"/>
	<flow id="flow17" type="vtype0" route="route5" begin="20" period="8" number="16" departLane="1" departSpeed="max"/>
	<flow id="flow18" type="vtype0" route="route6" begin="20" period="8" number="16" departLane="1" departSpeed="max"/>
	<flow id="flow19" type="vtype0" route="route7" begin="20" period="8" number="16" departLane="1" departSpeed="max"/>
	<flow id="flow20" type="vtype0" route="route8" begin="20" period="8" number="16" departLane="1" departSpeed="max"/>
	<flow id="flow21" type="vtype0" route="route9" begin="20" period="8" number="16" departLane="1" departSpeed="max"/>
	<flow id="flow22" type="vtype0" route="route10" begin="20" period="8" number="16" departLane="1" departSpeed="max"/>
	<flow id="flow23" type="vtype0" route="route11" begin="20" period="8" number="16" departLane="1" departSpeed="max"/>
	-->
	<flow id="flow26" type="vtype0" route="route12" begin="36" period="8" number="2" departLane="1" departSpeed="max"/>
	<flow id="flow27" type="vtype0" route="route13" begin="36" period="8" number="2" departLane="1" departSpeed="max"/>
	<flow id="flow28" type="vtype0" route="route14" begin="36" period="8" number="2" departLane="1" departSpeed="max"/>
	<flow id="flow29" type="vtype0" route="route15" begin="36" period="8" number="2" departLane="1" departSpeed="max"/>
</routes>
