<?xml version="1.0" encoding="UTF-8"?>

<!-- generated on 2016/12/29 17:09:02 by Netedit Version 0.27.1
<?xml version="1.0" encoding="UTF-8"?>

<configuration xmlns:xsi="http://www.w3.org/2001/XMLSchema-instance" xsi:noNamespaceSchemaLocation="http://sumo.dlr.de/xsd/netedit.exeConfiguration.xsd">

    <input>
        <sumo-net-file value="D:\veins-4.4\tests\grid\grid.net.xml"/>
    </input>

    <output>
        <output-file value="D:\veins-4.4\tests\grid\grid.net.xml"/>
    </output>

    <processing>
        <no-turnarounds value="true"/>
        <offset.disable-normalization value="true"/>
        <lefthand value="false"/>
        <junctions.corner-detail value="0"/>
    </processing>

</configuration>
-->

<net version="0.27" xmlns:xsi="http://www.w3.org/2001/XMLSchema-instance" xsi:noNamespaceSchemaLocation="http://sumo.dlr.de/xsd/net_file.xsd">

    <location netOffset="0.00,0.00" convBoundary="-926.18,-487.50,1201.81,1027.93" origBoundary="-10000000000.00,-10000000000.00,10000000000.00,10000000000.00" projParameter="!"/>

    <edge id=":gneJ13_0" function="internal">
        <lane id=":gneJ13_0_0" index="0" speed="13.89" length="9.53" shape="-553.87,507.98 -553.86,498.45"/>
        <lane id=":gneJ13_0_1" index="1" speed="13.89" length="9.53" shape="-550.57,507.98 -550.56,498.46"/>
    </edge>
    <edge id=":gneJ13_2" function="internal">
        <lane id=":gneJ13_2_0" index="0" speed="12.50" length="4.52" shape="-550.57,507.98 -549.96,505.16 -548.86,503.95"/>
    </edge>
    <edge id=":gneJ13_8" function="internal">
        <lane id=":gneJ13_8_0" index="0" speed="12.50" length="8.63" shape="-548.86,503.95 -548.14,503.15 -545.09,501.96 -540.83,501.59"/>
    </edge>
    <edge id=":gneJ13_3" function="internal">
        <lane id=":gneJ13_3_0" index="0" speed="12.50" length="5.01" shape="-540.86,504.89 -542.22,505.08 -543.19,505.65 -543.78,506.62 -543.97,507.98"/>
    </edge>
    <edge id=":gneJ13_4" function="internal">
        <lane id=":gneJ13_4_0" index="0" speed="12.50" length="13.09" shape="-540.86,504.89 -545.11,504.46 -548.14,503.25 -549.96,501.24 -550.56,498.46"/>
    </edge>
    <edge id=":gneJ13_5" function="internal">
        <lane id=":gneJ13_5_0" index="0" speed="12.50" length="5.03" shape="-543.96,498.48 -543.76,499.83 -543.18,500.80 -542.20,501.39 -540.83,501.59"/>
    </edge>
    <edge id=":gneJ13_6" function="internal">
        <lane id=":gneJ13_6_0" index="0" speed="13.89" length="9.51" shape="-543.96,498.48 -543.97,507.98"/>
        <lane id=":gneJ13_6_1" index="1" speed="13.89" length="9.51" shape="-547.26,498.47 -547.27,507.98"/>
    </edge>
    <edge id=":gneJ14_0" function="internal">
        <lane id=":gneJ14_0_0" index="0" speed="13.89" length="5.00" shape="-553.87,796.32 -554.06,794.96 -554.65,794.00 -555.62,793.42 -556.97,793.22"/>
    </edge>
    <edge id=":gneJ14_1" function="internal">
        <lane id=":gneJ14_1_0" index="0" speed="13.89" length="16.29" shape="-553.87,796.32 -553.87,780.03"/>
        <lane id=":gneJ14_1_1" index="1" speed="13.89" length="16.29" shape="-550.57,796.32 -550.57,780.03"/>
    </edge>
    <edge id=":gneJ14_3" function="internal">
        <lane id=":gneJ14_3_0" index="0" speed="13.89" length="6.40" shape="-550.57,796.32 -549.96,792.08 -548.87,790.27"/>
    </edge>
    <edge id=":gneJ14_16" function="internal">
        <lane id=":gneJ14_16_0" index="0" speed="13.89" length="9.45" shape="-548.87,790.27 -548.11,789.00 -545.04,787.11 -540.74,786.39"/>
    </edge>
    <edge id=":gneJ14_4" function="internal">
        <lane id=":gneJ14_4_0" index="0" speed="13.89" length="5.41" shape="-540.56,792.98 -542.05,793.23 -543.12,793.86 -543.76,794.90 -543.97,796.32"/>
    </edge>
    <edge id=":gneJ14_5" function="internal">
        <lane id=":gneJ14_5_0" index="0" speed="13.89" length="16.37" shape="-540.56,792.98 -556.97,793.22"/>
        <lane id=":gneJ14_5_1" index="1" speed="13.89" length="16.37" shape="-540.65,789.69 -556.98,789.92"/>
    </edge>
    <edge id=":gneJ14_7" function="internal">
        <lane id=":gneJ14_7_0" index="0" speed="13.89" length="6.60" shape="-540.65,789.69 -544.99,789.18 -546.92,788.08"/>
    </edge>
    <edge id=":gneJ14_17" function="internal">
        <lane id=":gneJ14_17_0" index="0" speed="13.89" length="9.29" shape="-546.92,788.08 -548.09,787.41 -549.95,784.36 -550.57,780.03"/>
    </edge>
    <edge id=":gneJ14_8" function="internal">
        <lane id=":gneJ14_8_0" index="0" speed="13.89" length="5.03" shape="-543.97,780.03 -543.77,781.40 -543.18,782.37 -542.20,782.93 -540.83,783.09"/>
    </edge>
    <edge id=":gneJ14_9" function="internal">
        <lane id=":gneJ14_9_0" index="0" speed="13.89" length="16.29" shape="-543.97,780.03 -543.97,796.32"/>
        <lane id=":gneJ14_9_1" index="1" speed="13.89" length="16.29" shape="-547.27,780.03 -547.27,796.32"/>
    </edge>
    <edge id=":gneJ14_11" function="internal">
        <lane id=":gneJ14_11_0" index="0" speed="13.89" length="6.52" shape="-547.27,780.03 -547.88,784.35 -548.97,786.21"/>
    </edge>
    <edge id=":gneJ14_18" function="internal">
        <lane id=":gneJ14_18_0" index="0" speed="13.89" length="9.28" shape="-548.97,786.21 -549.70,787.44 -552.73,789.30 -556.98,789.92"/>
    </edge>
    <edge id=":gneJ14_12" function="internal">
        <lane id=":gneJ14_12_0" index="0" speed="13.89" length="5.17" shape="-556.99,783.32 -555.62,783.12 -554.65,782.50 -554.06,781.47 -553.87,780.03"/>
    </edge>
    <edge id=":gneJ14_13" function="internal">
        <lane id=":gneJ14_13_0" index="0" speed="13.89" length="16.21" shape="-556.99,783.32 -540.83,783.09"/>
        <lane id=":gneJ14_13_1" index="1" speed="13.89" length="16.21" shape="-556.98,786.62 -540.74,786.39"/>
    </edge>
    <edge id=":gneJ14_15" function="internal">
        <lane id=":gneJ14_15_0" index="0" speed="13.89" length="6.27" shape="-556.98,786.62 -552.73,787.22 -551.04,788.24"/>
    </edge>
    <edge id=":gneJ14_19" function="internal">
        <lane id=":gneJ14_19_0" index="0" speed="13.89" length="9.39" shape="-551.04,788.24 -549.70,789.04 -547.88,792.07 -547.27,796.32"/>
    </edge>
    <edge id=":gneJ16_0" function="internal">
        <lane id=":gneJ16_0_0" index="0" speed="13.89" length="9.50" shape="-553.21,26.22 -553.21,16.72"/>
        <lane id=":gneJ16_0_1" index="1" speed="13.89" length="9.50" shape="-549.91,26.22 -549.91,16.72"/>
    </edge>
    <edge id=":gneJ16_2" function="internal">
        <lane id=":gneJ16_2_0" index="0" speed="12.50" length="4.49" shape="-549.91,26.22 -549.30,23.42 -548.21,22.22"/>
    </edge>
    <edge id=":gneJ16_8" function="internal">
        <lane id=":gneJ16_8_0" index="0" speed="12.50" length="8.60" shape="-548.21,22.22 -547.48,21.42 -544.45,20.22 -540.21,19.82"/>
    </edge>
    <edge id=":gneJ16_3" function="internal">
        <lane id=":gneJ16_3_0" index="0" speed="12.50" length="5.00" shape="-540.21,23.12 -541.56,23.31 -542.53,23.89 -543.11,24.86 -543.31,26.22"/>
    </edge>
    <edge id=":gneJ16_4" function="internal">
        <lane id=":gneJ16_4_0" index="0" speed="12.50" length="13.09" shape="-540.21,23.12 -544.45,22.72 -547.48,21.52 -549.30,19.52 -549.91,16.72"/>
    </edge>
    <edge id=":gneJ16_5" function="internal">
        <lane id=":gneJ16_5_0" index="0" speed="12.50" length="5.00" shape="-543.31,16.72 -543.12,18.07 -542.53,19.04 -541.57,19.62 -540.21,19.82"/>
    </edge>
    <edge id=":gneJ16_6" function="internal">
        <lane id=":gneJ16_6_0" index="0" speed="13.89" length="9.50" shape="-543.31,16.72 -543.31,26.22"/>
        <lane id=":gneJ16_6_1" index="1" speed="13.89" length="9.50" shape="-546.61,16.72 -546.61,26.22"/>
    </edge>
    <edge id=":gneJ17_0" function="internal">
        <lane id=":gneJ17_0_0" index="0" speed="13.89" length="5.07" shape="-553.21,-211.57 -553.40,-212.96 -553.99,-213.96 -554.96,-214.55 -556.32,-214.75"/>
    </edge>
    <edge id=":gneJ17_1" function="internal">
        <lane id=":gneJ17_1_0" index="0" speed="13.89" length="16.18" shape="-553.21,-211.57 -553.21,-227.75"/>
        <lane id=":gneJ17_1_1" index="1" speed="13.89" length="16.18" shape="-549.91,-211.57 -549.91,-227.75"/>
    </edge>
    <edge id=":gneJ17_3" function="internal">
        <lane id=":gneJ17_3_0" index="0" speed="13.89" length="6.43" shape="-549.91,-211.57 -549.30,-215.85 -548.21,-217.65"/>
    </edge>
    <edge id=":gneJ17_16" function="internal">
        <lane id=":gneJ17_16_0" index="0" speed="13.89" length="9.32" shape="-548.21,-217.65 -547.46,-218.89 -544.40,-220.69 -540.11,-221.25"/>
    </edge>
    <edge id=":gneJ17_4" function="internal">
        <lane id=":gneJ17_4_0" index="0" speed="13.89" length="5.01" shape="-540.19,-214.65 -541.56,-214.47 -542.53,-213.90 -543.12,-212.93 -543.31,-211.57"/>
    </edge>
    <edge id=":gneJ17_5" function="internal">
        <lane id=":gneJ17_5_0" index="0" speed="13.89" length="16.14" shape="-540.19,-214.65 -556.32,-214.75"/>
        <lane id=":gneJ17_5_1" index="1" speed="13.89" length="16.14" shape="-540.15,-217.95 -556.31,-218.05"/>
    </edge>
    <edge id=":gneJ17_7" function="internal">
        <lane id=":gneJ17_7_0" index="0" speed="13.89" length="6.40" shape="-540.15,-217.95 -544.42,-218.61 -546.20,-219.69"/>
    </edge>
    <edge id=":gneJ17_17" function="internal">
        <lane id=":gneJ17_17_0" index="0" speed="13.89" length="9.33" shape="-546.20,-219.69 -547.47,-220.46 -549.30,-223.51 -549.91,-227.75"/>
    </edge>
    <edge id=":gneJ17_8" function="internal">
        <lane id=":gneJ17_8_0" index="0" speed="13.89" length="5.18" shape="-543.31,-227.75 -543.11,-226.37 -542.50,-225.37 -541.49,-224.77 -540.07,-224.55"/>
    </edge>
    <edge id=":gneJ17_9" function="internal">
        <lane id=":gneJ17_9_0" index="0" speed="13.89" length="16.18" shape="-543.31,-227.75 -543.31,-211.57"/>
        <lane id=":gneJ17_9_1" index="1" speed="13.89" length="16.18" shape="-546.61,-227.75 -546.61,-211.57"/>
    </edge>
    <edge id=":gneJ17_11" function="internal">
        <lane id=":gneJ17_11_0" index="0" speed="13.89" length="6.41" shape="-546.61,-227.75 -547.22,-223.51 -548.31,-221.69"/>
    </edge>
    <edge id=":gneJ17_18" function="internal">
        <lane id=":gneJ17_18_0" index="0" speed="13.89" length="9.24" shape="-548.31,-221.69 -549.04,-220.48 -552.07,-218.66 -556.31,-218.05"/>
    </edge>
    <edge id=":gneJ17_12" function="internal">
        <lane id=":gneJ17_12_0" index="0" speed="13.89" length="5.00" shape="-556.31,-224.65 -554.95,-224.85 -553.99,-225.43 -553.40,-226.40 -553.21,-227.75"/>
    </edge>
    <edge id=":gneJ17_13" function="internal">
        <lane id=":gneJ17_13_0" index="0" speed="13.89" length="16.22" shape="-556.31,-224.65 -540.07,-224.55"/>
        <lane id=":gneJ17_13_1" index="1" speed="13.89" length="16.22" shape="-556.31,-221.35 -540.11,-221.25"/>
    </edge>
    <edge id=":gneJ17_15" function="internal">
        <lane id=":gneJ17_15_0" index="0" speed="13.89" length="6.46" shape="-556.31,-221.35 -552.07,-220.74 -550.21,-219.62"/>
    </edge>
    <edge id=":gneJ17_19" function="internal">
        <lane id=":gneJ17_19_0" index="0" speed="13.89" length="9.25" shape="-550.21,-219.62 -549.04,-218.91 -547.22,-215.85 -546.61,-211.57"/>
    </edge>
    <edge id=":gneJ19_0" function="internal">
        <lane id=":gneJ19_0_0" index="0" speed="11.11" length="5.03" shape="-219.48,510.45 -219.68,509.10 -220.27,508.13 -221.25,507.55 -222.62,507.34"/>
    </edge>
    <edge id=":gneJ19_1" function="internal">
        <lane id=":gneJ19_1_0" index="0" speed="11.11" length="9.55" shape="-219.48,510.45 -219.48,500.90"/>
    </edge>
    <edge id=":gneJ19_2" function="internal">
        <lane id=":gneJ19_2_0" index="0" speed="11.11" length="5.27" shape="-219.48,510.45 -219.09,507.67 -217.89,505.67 -217.78,505.60"/>
    </edge>
    <edge id=":gneJ19_12" function="internal">
        <lane id=":gneJ19_12_0" index="0" speed="11.11" length="5.08" shape="-217.78,505.60 -215.88,504.44 -213.06,503.99"/>
    </edge>
    <edge id=":gneJ19_3" function="internal">
        <lane id=":gneJ19_3_0" index="0" speed="11.11" length="5.09" shape="-213.00,507.29 -214.40,507.51 -215.39,508.11 -215.99,509.08 -216.18,510.44"/>
    </edge>
    <edge id=":gneJ19_4" function="internal">
        <lane id=":gneJ19_4_0" index="0" speed="11.11" length="9.63" shape="-213.00,507.29 -222.62,507.34"/>
    </edge>
    <edge id=":gneJ19_5" function="internal">
        <lane id=":gneJ19_5_0" index="0" speed="11.11" length="5.37" shape="-213.00,507.29 -215.84,506.94 -217.87,505.75 -217.95,505.62"/>
    </edge>
    <edge id=":gneJ19_13" function="internal">
        <lane id=":gneJ19_13_0" index="0" speed="11.11" length="5.06" shape="-217.95,505.62 -219.09,503.74 -219.48,500.90"/>
    </edge>
    <edge id=":gneJ19_6" function="internal">
        <lane id=":gneJ19_6_0" index="0" speed="11.11" length="5.03" shape="-216.18,500.91 -215.99,502.28 -215.41,503.25 -214.43,503.82 -213.06,503.99"/>
    </edge>
    <edge id=":gneJ19_7" function="internal">
        <lane id=":gneJ19_7_0" index="0" speed="11.11" length="9.52" shape="-216.18,500.91 -216.18,510.44"/>
    </edge>
    <edge id=":gneJ19_8" function="internal">
        <lane id=":gneJ19_8_0" index="0" speed="11.11" length="5.21" shape="-216.18,500.91 -216.59,503.75 -217.80,505.76"/>
    </edge>
    <edge id=":gneJ19_14" function="internal">
        <lane id=":gneJ19_14_0" index="0" speed="11.11" length="5.18" shape="-217.80,505.76 -219.81,506.96 -222.62,507.34"/>
    </edge>
    <edge id=":gneJ19_9" function="internal">
        <lane id=":gneJ19_9_0" index="0" speed="11.11" length="5.05" shape="-222.60,504.04 -221.24,503.86 -220.27,503.27 -219.68,502.28 -219.48,500.90"/>
    </edge>
    <edge id=":gneJ19_10" function="internal">
        <lane id=":gneJ19_10_0" index="0" speed="11.11" length="9.54" shape="-222.60,504.04 -213.06,503.99"/>
    </edge>
    <edge id=":gneJ19_11" function="internal">
        <lane id=":gneJ19_11_0" index="0" speed="11.11" length="5.17" shape="-222.60,504.04 -219.80,504.46 -217.80,505.67"/>
    </edge>
    <edge id=":gneJ19_15" function="internal">
        <lane id=":gneJ19_15_0" index="0" speed="11.11" length="5.14" shape="-217.80,505.67 -216.59,507.66 -216.18,510.44"/>
    </edge>
    <edge id=":gneJ20_0" function="internal">
        <lane id=":gneJ20_0_0" index="0" speed="12.50" length="5.02" shape="122.92,504.33 122.73,502.96 122.14,502.00 121.17,501.43 119.80,501.26"/>
    </edge>
    <edge id=":gneJ20_1" function="internal">
        <lane id=":gneJ20_1_0" index="0" speed="13.89" length="9.81" shape="122.92,504.33 123.02,494.50"/>
        <lane id=":gneJ20_1_1" index="1" speed="13.89" length="9.81" shape="126.22,504.34 126.32,494.56"/>
    </edge>
    <edge id=":gneJ20_3" function="internal">
        <lane id=":gneJ20_3_0" index="0" speed="12.50" length="4.61" shape="126.22,504.34 126.84,501.48 127.97,500.23"/>
    </edge>
    <edge id=":gneJ20_14" function="internal">
        <lane id=":gneJ20_14_0" index="0" speed="12.50" length="8.63" shape="127.97,500.23 128.67,499.44 131.72,498.22 135.99,497.82"/>
    </edge>
    <edge id=":gneJ20_4" function="internal">
        <lane id=":gneJ20_4_0" index="0" speed="12.50" length="5.15" shape="135.99,501.12 134.61,501.32 133.62,501.92 133.02,502.93 132.82,504.34"/>
    </edge>
    <edge id=":gneJ20_5" function="internal">
        <lane id=":gneJ20_5_0" index="0" speed="11.11" length="16.19" shape="135.99,501.12 119.80,501.26"/>
    </edge>
    <edge id=":gneJ20_6" function="internal">
        <lane id=":gneJ20_6_0" index="0" speed="12.50" length="7.57" shape="135.99,501.12 131.71,500.70 128.68,499.47"/>
    </edge>
    <edge id=":gneJ20_15" function="internal">
        <lane id=":gneJ20_15_0" index="0" speed="12.50" length="5.64" shape="128.68,499.47 126.88,497.42 126.32,494.56"/>
    </edge>
    <edge id=":gneJ20_7" function="internal">
        <lane id=":gneJ20_7_0" index="0" speed="12.50" length="5.02" shape="132.92,494.69 133.09,496.05 133.66,497.03 134.63,497.62 135.99,497.82"/>
    </edge>
    <edge id=":gneJ20_8" function="internal">
        <lane id=":gneJ20_8_0" index="0" speed="13.89" length="9.69" shape="132.92,494.69 132.82,504.34"/>
        <lane id=":gneJ20_8_1" index="1" speed="13.89" length="9.69" shape="129.62,494.62 129.52,504.34"/>
    </edge>
    <edge id=":gneJ20_10" function="internal">
        <lane id=":gneJ20_10_0" index="0" speed="12.50" length="4.52" shape="129.62,494.62 128.96,497.46 127.88,498.65"/>
    </edge>
    <edge id=":gneJ20_16" function="internal">
        <lane id=":gneJ20_16_0" index="0" speed="12.50" length="8.74" shape="127.88,498.65 127.10,499.51 124.05,500.78 119.80,501.26"/>
    </edge>
    <edge id=":gneJ20_11" function="internal">
        <lane id=":gneJ20_11_0" index="0" speed="12.50" length="5.40" shape="119.74,497.96 121.15,497.72 122.17,497.06 122.79,495.99 123.02,494.50"/>
    </edge>
    <edge id=":gneJ20_12" function="internal">
        <lane id=":gneJ20_12_0" index="0" speed="11.11" length="16.26" shape="119.74,497.96 135.99,497.82"/>
    </edge>
    <edge id=":gneJ20_13" function="internal">
        <lane id=":gneJ20_13_0" index="0" speed="12.50" length="7.75" shape="119.74,497.96 124.02,498.29 127.08,499.46 127.20,499.59"/>
    </edge>
    <edge id=":gneJ20_17" function="internal">
        <lane id=":gneJ20_17_0" index="0" speed="12.50" length="5.47" shape="127.20,499.59 128.92,501.48 129.52,504.34"/>
    </edge>
    <edge id=":gneJ21_0" function="internal">
        <lane id=":gneJ21_0_0" index="0" speed="11.11" length="5.01" shape="500.86,504.56 500.67,503.20 500.08,502.23 499.11,501.65 497.75,501.46"/>
    </edge>
    <edge id=":gneJ21_1" function="internal">
        <lane id=":gneJ21_1_0" index="0" speed="11.11" length="9.50" shape="500.86,504.56 500.85,495.05"/>
    </edge>
    <edge id=":gneJ21_2" function="internal">
        <lane id=":gneJ21_2_0" index="0" speed="11.11" length="5.27" shape="500.86,504.56 501.26,501.76 502.46,499.76 502.55,499.70"/>
    </edge>
    <edge id=":gneJ21_12" function="internal">
        <lane id=":gneJ21_12_0" index="0" speed="11.11" length="5.06" shape="502.55,499.70 504.46,498.55 507.26,498.14"/>
    </edge>
    <edge id=":gneJ21_3" function="internal">
        <lane id=":gneJ21_3_0" index="0" speed="11.11" length="5.03" shape="507.28,501.44 505.91,501.64 504.94,502.22 504.35,503.20 504.16,504.56"/>
    </edge>
    <edge id=":gneJ21_4" function="internal">
        <lane id=":gneJ21_4_0" index="0" speed="11.11" length="9.53" shape="507.28,501.44 497.75,501.46"/>
    </edge>
    <edge id=":gneJ21_5" function="internal">
        <lane id=":gneJ21_5_0" index="0" speed="11.11" length="5.30" shape="507.28,501.44 504.47,501.05 502.46,499.86 502.40,499.75"/>
    </edge>
    <edge id=":gneJ21_13" function="internal">
        <lane id=":gneJ21_13_0" index="0" speed="11.11" length="5.04" shape="502.40,499.75 501.26,497.86 500.85,495.05"/>
    </edge>
    <edge id=":gneJ21_6" function="internal">
        <lane id=":gneJ21_6_0" index="0" speed="11.11" length="5.00" shape="504.15,495.05 504.35,496.40 504.93,497.37 505.90,497.95 507.26,498.14"/>
    </edge>
    <edge id=":gneJ21_7" function="internal">
        <lane id=":gneJ21_7_0" index="0" speed="11.11" length="9.51" shape="504.15,495.05 504.16,504.56"/>
    </edge>
    <edge id=":gneJ21_8" function="internal">
        <lane id=":gneJ21_8_0" index="0" speed="11.11" length="5.29" shape="504.15,495.05 503.75,497.85 502.56,499.86 502.46,499.92"/>
    </edge>
    <edge id=":gneJ21_14" function="internal">
        <lane id=":gneJ21_14_0" index="0" speed="11.11" length="5.05" shape="502.46,499.92 500.55,501.06 497.75,501.46"/>
    </edge>
    <edge id=":gneJ21_9" function="internal">
        <lane id=":gneJ21_9_0" index="0" speed="11.11" length="5.00" shape="497.75,498.16 499.11,497.96 500.08,497.38 500.66,496.41 500.85,495.05"/>
    </edge>
    <edge id=":gneJ21_10" function="internal">
        <lane id=":gneJ21_10_0" index="0" speed="11.11" length="9.51" shape="497.75,498.16 507.26,498.14"/>
    </edge>
    <edge id=":gneJ21_11" function="internal">
        <lane id=":gneJ21_11_0" index="0" speed="11.11" length="5.27" shape="497.75,498.16 500.56,498.56 502.56,499.76 502.61,499.85"/>
    </edge>
    <edge id=":gneJ21_15" function="internal">
        <lane id=":gneJ21_15_0" index="0" speed="11.11" length="5.06" shape="502.61,499.85 503.76,501.76 504.16,504.56"/>
    </edge>
    <edge id=":gneJ22_0" function="internal">
        <lane id=":gneJ22_0_0" index="0" speed="12.50" length="5.01" shape="861.04,502.72 860.84,501.36 860.26,500.39 859.29,499.81 857.93,499.62"/>
    </edge>
    <edge id=":gneJ22_1" function="internal">
        <lane id=":gneJ22_1_0" index="0" speed="13.89" length="9.50" shape="861.04,502.72 861.04,493.21"/>
        <lane id=":gneJ22_1_1" index="1" speed="13.89" length="9.50" shape="864.34,502.72 864.34,493.22"/>
    </edge>
    <edge id=":gneJ22_3" function="internal">
        <lane id=":gneJ22_3_0" index="0" speed="13.89" length="9.50" shape="870.94,493.22 870.94,502.72"/>
        <lane id=":gneJ22_3_1" index="1" speed="13.89" length="9.50" shape="867.64,493.22 867.64,502.72"/>
    </edge>
    <edge id=":gneJ22_5" function="internal">
        <lane id=":gneJ22_5_0" index="0" speed="12.50" length="4.47" shape="867.64,493.22 867.03,496.00 865.94,497.20"/>
    </edge>
    <edge id=":gneJ22_8" function="internal">
        <lane id=":gneJ22_8_0" index="0" speed="12.50" length="8.61" shape="865.94,497.20 865.21,498.00 862.18,499.20 857.93,499.62"/>
    </edge>
    <edge id=":gneJ22_6" function="internal">
        <lane id=":gneJ22_6_0" index="0" speed="12.50" length="5.02" shape="857.91,496.32 859.28,496.12 860.26,495.54 860.85,494.57 861.04,493.21"/>
    </edge>
    <edge id=":gneJ22_7" function="internal">
        <lane id=":gneJ22_7_0" index="0" speed="12.50" length="13.13" shape="857.91,496.32 862.17,496.70 865.21,497.90 867.03,499.90 867.64,502.72"/>
    </edge>
    <edge id=":gneJ23_0" function="internal">
        <lane id=":gneJ23_0_0" index="0" speed="11.11" length="5.11" shape="-208.94,22.90 -210.31,23.11 -211.29,23.71 -211.89,24.71 -212.11,26.10"/>
    </edge>
    <edge id=":gneJ23_1" function="internal">
        <lane id=":gneJ23_1_0" index="0" speed="11.11" length="9.54" shape="-208.94,22.90 -218.49,22.93"/>
    </edge>
    <edge id=":gneJ23_2" function="internal">
        <lane id=":gneJ23_2_0" index="0" speed="11.11" length="5.28" shape="-208.94,22.90 -211.74,22.52 -213.74,21.32 -213.81,21.22"/>
    </edge>
    <edge id=":gneJ23_12" function="internal">
        <lane id=":gneJ23_12_0" index="0" speed="11.11" length="5.05" shape="-213.81,21.22 -214.96,19.32 -215.38,16.52"/>
    </edge>
    <edge id=":gneJ23_3" function="internal">
        <lane id=":gneJ23_3_0" index="0" speed="11.11" length="5.03" shape="-212.08,16.49 -211.88,17.86 -211.29,18.83 -210.32,19.42 -208.96,19.60"/>
    </edge>
    <edge id=":gneJ23_4" function="internal">
        <lane id=":gneJ23_4_0" index="0" speed="11.11" length="9.61" shape="-212.08,16.49 -212.11,26.10"/>
    </edge>
    <edge id=":gneJ23_5" function="internal">
        <lane id=":gneJ23_5_0" index="0" speed="11.11" length="5.35" shape="-212.08,16.49 -212.46,19.31 -213.65,21.32 -213.79,21.40"/>
    </edge>
    <edge id=":gneJ23_13" function="internal">
        <lane id=":gneJ23_13_0" index="0" speed="11.11" length="5.03" shape="-213.79,21.40 -215.66,22.53 -218.49,22.93"/>
    </edge>
    <edge id=":gneJ23_6" function="internal">
        <lane id=":gneJ23_6_0" index="0" speed="11.11" length="5.03" shape="-218.49,19.63 -217.12,19.44 -216.14,18.85 -215.57,17.88 -215.38,16.52"/>
    </edge>
    <edge id=":gneJ23_7" function="internal">
        <lane id=":gneJ23_7_0" index="0" speed="11.11" length="9.53" shape="-218.49,19.63 -208.96,19.60"/>
    </edge>
    <edge id=":gneJ23_8" function="internal">
        <lane id=":gneJ23_8_0" index="0" speed="11.11" length="5.20" shape="-218.49,19.63 -215.66,20.04 -213.66,21.25"/>
    </edge>
    <edge id=":gneJ23_14" function="internal">
        <lane id=":gneJ23_14_0" index="0" speed="11.11" length="5.20" shape="-213.66,21.25 -212.47,23.27 -212.11,26.10"/>
    </edge>
    <edge id=":gneJ23_9" function="internal">
        <lane id=":gneJ23_9_0" index="0" speed="11.11" length="5.02" shape="-215.40,26.05 -215.58,24.69 -216.15,23.71 -217.12,23.13 -218.49,22.93"/>
    </edge>
    <edge id=":gneJ23_10" function="internal">
        <lane id=":gneJ23_10_0" index="0" speed="11.11" length="9.54" shape="-215.40,26.05 -215.38,16.52"/>
    </edge>
    <edge id=":gneJ23_11" function="internal">
        <lane id=":gneJ23_11_0" index="0" speed="11.11" length="5.19" shape="-215.40,26.05 -214.97,23.24 -213.75,21.23"/>
    </edge>
    <edge id=":gneJ23_15" function="internal">
        <lane id=":gneJ23_15_0" index="0" speed="11.11" length="5.16" shape="-213.75,21.23 -211.75,20.02 -208.96,19.60"/>
    </edge>
    <edge id=":gneJ24_0" function="internal">
        <lane id=":gneJ24_0_0" index="0" speed="12.50" length="5.01" shape="128.15,24.13 127.96,22.77 127.38,21.80 126.41,21.22 125.05,21.04"/>
    </edge>
    <edge id=":gneJ24_1" function="internal">
        <lane id=":gneJ24_1_0" index="0" speed="13.89" length="9.66" shape="128.15,24.13 128.16,14.47"/>
        <lane id=":gneJ24_1_1" index="1" speed="13.89" length="9.66" shape="131.45,24.13 131.46,14.47"/>
    </edge>
    <edge id=":gneJ24_3" function="internal">
        <lane id=":gneJ24_3_0" index="0" speed="12.50" length="4.52" shape="131.45,24.13 132.06,21.32 133.16,20.10"/>
    </edge>
    <edge id=":gneJ24_14" function="internal">
        <lane id=":gneJ24_14_0" index="0" speed="12.50" length="8.67" shape="133.16,20.10 133.89,19.28 136.93,18.02 141.19,17.55"/>
    </edge>
    <edge id=":gneJ24_4" function="internal">
        <lane id=":gneJ24_4_0" index="0" speed="12.50" length="5.21" shape="141.25,20.85 139.85,21.07 138.85,21.70 138.25,22.72 138.05,24.14"/>
    </edge>
    <edge id=":gneJ24_5" function="internal">
        <lane id=":gneJ24_5_0" index="0" speed="11.11" length="16.20" shape="141.25,20.85 125.05,21.04"/>
    </edge>
    <edge id=":gneJ24_6" function="internal">
        <lane id=":gneJ24_6_0" index="0" speed="12.50" length="7.71" shape="141.25,20.85 136.96,20.51 133.91,19.34 133.81,19.23"/>
    </edge>
    <edge id=":gneJ24_15" function="internal">
        <lane id=":gneJ24_15_0" index="0" speed="12.50" length="5.50" shape="133.81,19.23 132.07,17.33 131.46,14.47"/>
    </edge>
    <edge id=":gneJ24_7" function="internal">
        <lane id=":gneJ24_7_0" index="0" speed="12.50" length="5.02" shape="138.06,14.47 138.26,15.84 138.84,16.81 139.82,17.38 141.19,17.55"/>
    </edge>
    <edge id=":gneJ24_8" function="internal">
        <lane id=":gneJ24_8_0" index="0" speed="13.89" length="9.67" shape="138.06,14.47 138.05,24.14"/>
        <lane id=":gneJ24_8_1" index="1" speed="13.89" length="9.67" shape="134.76,14.47 134.75,24.14"/>
    </edge>
    <edge id=":gneJ24_10" function="internal">
        <lane id=":gneJ24_10_0" index="0" speed="12.50" length="4.56" shape="134.76,14.47 134.15,17.32 133.06,18.55"/>
    </edge>
    <edge id=":gneJ24_16" function="internal">
        <lane id=":gneJ24_16_0" index="0" speed="12.50" length="8.64" shape="133.06,18.55 132.33,19.37 129.30,20.60 125.05,21.04"/>
    </edge>
    <edge id=":gneJ24_11" function="internal">
        <lane id=":gneJ24_11_0" index="0" speed="12.50" length="5.15" shape="125.03,17.74 126.40,17.52 127.38,16.91 127.96,15.89 128.16,14.47"/>
    </edge>
    <edge id=":gneJ24_12" function="internal">
        <lane id=":gneJ24_12_0" index="0" speed="11.11" length="16.16" shape="125.03,17.74 141.19,17.55"/>
    </edge>
    <edge id=":gneJ24_13" function="internal">
        <lane id=":gneJ24_13_0" index="0" speed="12.50" length="7.54" shape="125.03,17.74 129.29,18.12 132.33,19.31"/>
    </edge>
    <edge id=":gneJ24_17" function="internal">
        <lane id=":gneJ24_17_0" index="0" speed="12.50" length="5.60" shape="132.33,19.31 134.15,21.32 134.75,24.14"/>
    </edge>
    <edge id=":gneJ25_0" function="internal">
        <lane id=":gneJ25_0_0" index="0" speed="11.11" length="5.15" shape="509.14,14.42 507.76,14.62 506.77,15.23 506.17,16.23 505.96,17.64"/>
    </edge>
    <edge id=":gneJ25_1" function="internal">
        <lane id=":gneJ25_1_0" index="0" speed="11.11" length="9.60" shape="509.14,14.42 499.55,14.52"/>
    </edge>
    <edge id=":gneJ25_2" function="internal">
        <lane id=":gneJ25_2_0" index="0" speed="11.11" length="5.18" shape="509.14,14.42 506.33,14.02 504.32,12.82"/>
    </edge>
    <edge id=":gneJ25_12" function="internal">
        <lane id=":gneJ25_12_0" index="0" speed="11.11" length="5.18" shape="504.32,12.82 503.12,10.81 502.74,7.99"/>
    </edge>
    <edge id=":gneJ25_3" function="internal">
        <lane id=":gneJ25_3_0" index="0" speed="11.11" length="5.01" shape="506.04,8.01 506.22,9.37 506.80,10.34 507.77,10.93 509.13,11.12"/>
    </edge>
    <edge id=":gneJ25_4" function="internal">
        <lane id=":gneJ25_4_0" index="0" speed="11.11" length="9.63" shape="506.04,8.01 505.96,17.64"/>
    </edge>
    <edge id=":gneJ25_5" function="internal">
        <lane id=":gneJ25_5_0" index="0" speed="11.11" length="5.31" shape="506.04,8.01 505.62,10.81 504.40,12.83 504.30,12.89"/>
    </edge>
    <edge id=":gneJ25_13" function="internal">
        <lane id=":gneJ25_13_0" index="0" speed="11.11" length="5.11" shape="504.30,12.89 502.37,14.07 499.55,14.52"/>
    </edge>
    <edge id=":gneJ25_6" function="internal">