[General]
cmdenv-express-mode = true
cmdenv-autoflush = true
cmdenv-status-frequency = 10000000s

#tkenv-default-config = accident
#tkenv-default-run = 1
ned-path = .

network = scenario

##########################################################
#            Simulation parameters                       #
##########################################################
debug-on-errors = true
print-undisposed = false

sim-time-limit = 350s

**.scalar-recording = true
**.vector-recording = true

**.coreDebug = false

*.playgroundSizeX = 2200m
*.playgroundSizeY = 1600m
*.playgroundSizeZ = 100m


##########################################################
# Annotation parameters                                  #
##########################################################
*.annotations.draw = false

##########################################################
#            WorldUtility parameters                     #
##########################################################
*.world.useTorus = false
*.world.use2D = false

##########################################################
#            TraCIScenarioManager parameters             #
##########################################################
*.manager.updateInterval = 1s
*.manager.host = "localhost"
*.manager.port = 9999
*.manager.moduleType = "org.car2x.veins.nodes.Vehicle"
*.manager.moduleName = "node"
*.manager.moduleDisplayString = ""
*.manager.autoShutdown = true
*.manager.margin = 25
*.manager.launchConfig = xmldoc("sumo-launchd.launch.xml")

##########################################################
#            11p specific parameters                     #
#                                                        #
#                    NIC-Settings                        #
##########################################################
*.connectionManager.sendDirect = true
*.connectionManager.pMax = 48mW
*.connectionManager.sat = -79dBm
*.connectionManager.sat2 = -83dBm
*.connectionManager.alpha = 2.0
*.connectionManager.carrierFrequency = 5.890e9 Hz

*.**.nic.mac1609_4.useServiceChannel = true
*.**.nic.mac1609_4.txPower = 48mW
*.**.nic.mac1609_4.bitrate = 6Mbps
*.**.nic.mac1609_4.useAcks = false
*.**.nic.mac1609_4.queueSize = 16

*.node[*].nic.phy80211p.sensitivity = -79dBm
*.**.nic.phy80211p.useThermalNoise = true
*.**.nic.phy80211p.thermalNoise = -110dBm
*.**.nic.phy80211p.decider = xmldoc("config.xml")
*.**.nic.phy80211p.analogueModels = xmldoc("config.xml")
*.**.nic.phy80211p.usePropagationDelay = true

##########################################################
#           RoutingStatisticCollector SETTINGS           #
##########################################################
*.routingCollector.trafficDensity = 720vph
*.routingCollector.roadSpeedLimit = 60km
*.routingCollector.rtExpirationTime = 6s
*.routingCollector.packetsPerSecond = 50
*.routingCollector.resultFile = "routingStatistics.csv"

##########################################################
#                      AppLayer                          #
##########################################################
*.node[*].applType = "org.car2x.veins.modules.routing.AOMDV"
*.node[*].appl.headerLength = 184bit
*.node[*].appl.sendBeacons = true
*.node[*].appl.callRoutings = true
*.node[*].appl.dataOnSch = true
*.node[*].appl.beaconInterval = 1s
*.node[*].appl.examineNeighborsInterval = 1s
*.node[*].appl.neighborElapsed = 2s
*.node[*].appl.pktApplLayerDelay = 20000us
*.node[*].appl.routingPlan = xmldoc("config.xml")

##########################################################
#                      Mobility                          #
##########################################################
*.node[0].posX = 140
*.node[1].posX = 320
*.node[2].posX = 500
*.node[3].posX = 675
*.node[4].posX = 850
*.node[0..4].posY = 800

*.node[5].posX = 290
*.node[5].posY = 520
*.node[6].posX = 360
*.node[6].posY = 670
*.node[7].posX = 450
*.node[7].posY = 410
*.node[8].posX = 600
*.node[8].posY = 530
*.node[9].posX = 610
*.node[9].posY = 700
*.node[10].posX = 805
*.node[10].posY = 695

*.node[11].posX = 290
*.node[11].posY = 1080
*.node[12].posX = 360
*.node[12].posY = 930
*.node[13].posX = 450
*.node[13].posY = 1190
*.node[14].posX = 600
*.node[14].posY = 1070
*.node[15].posX = 610
*.node[15].posY = 900
*.node[16].posX = 805
*.node[16].posY = 905

#*.node[17].posX = 700
#*.node[17].posY = 1400
#*.node[18].posX = 1100
#*.node[18].posY = 1400
#*.node[19].posX = 1500
#*.node[19].posY = 1400
#*.node[20].posX = 1900
#*.node[20].posY = 1400
*.node[*].posZ = 1.5
*.node[*].mobility.staticTrajectory = true
*.node[*].mobility.trajectory = xmldoc("config.xml")