[General]
cmdenv-express-mode = true
cmdenv-autoflush = true
cmdenv-status-frequency = 10000000s

#tkenv-default-config = accident
#tkenv-default-run = 1
ned-path = .

network = scenario

##########################################################
#            Simulation parameters                       #
##########################################################
debug-on-errors = true
print-undisposed = false

sim-time-limit = 350s

**.scalar-recording = true
**.vector-recording = true

**.debug = false
**.coreDebug = false

*.playgroundSizeX = 2200m
*.playgroundSizeY = 1600m
*.playgroundSizeZ = 100m


##########################################################
# Annotation parameters                                  #
##########################################################
*.annotations.draw = false

##########################################################
# Obstacle parameters                                    #
##########################################################
*.obstacles.debug = false

##########################################################
#            WorldUtility parameters                     #
##########################################################
*.world.useTorus = false
*.world.use2D = false

##########################################################
#            TraCIScenarioManager parameters             #
##########################################################
*.manager.updateInterval = 1s
*.manager.host = "localhost"
*.manager.port = 9999
*.manager.moduleType = "org.car2x.veins.nodes.Vehicle"
*.manager.moduleName = "node"
*.manager.moduleDisplayString = ""
*.manager.autoShutdown = true
*.manager.margin = 25
*.manager.launchConfig = xmldoc("sumo-launchd.launch.xml")

##########################################################
#            11p specific parameters                     #
#                                                        #
#                    NIC-Settings                        #
##########################################################
*.connectionManager.sendDirect = true
*.connectionManager.pMax = 48mW
*.connectionManager.sat = -85dBm
*.connectionManager.sat2 = -85dBm
*.connectionManager.alpha = 2.0
*.connectionManager.carrierFrequency = 5.890e9 Hz

*.**.nic.mac1609_4.useServiceChannel = false
*.**.nic.mac1609_4.txPower = 48mW
*.**.nic.mac1609_4.bitrate = 6Mbps
*.**.nic.mac1609_4.useAcks = true
*.**.nic.mac1609_4.queueSize = 16

*.node[*].nic.phy80211p.sensitivity = -85dBm
*.**.nic.phy80211p.useThermalNoise = true
*.**.nic.phy80211p.thermalNoise = -110dBm
*.**.nic.phy80211p.decider = xmldoc("config.xml")
*.**.nic.phy80211p.analogueModels = xmldoc("config.xml")
*.**.nic.phy80211p.usePropagationDelay = true

##########################################################
#                       RSU SETTINGS                     #
##########################################################
#*.rsu[0].posX = 750
#*.rsu[0].posY = 200
#*.rsu[0].appl.whichSide = 2
#*.rsu[1].posX = 3250
#*.rsu[1].posY = 150
#*.rsu[1].appl.whichSide = 3
#*.rsu[2].posX = 4100
#*.rsu[2].posY = 150
#*.rsu[2].appl.whichSide = 3
#*.rsu[*].posZ = normal(3.6, 0.4)
#*.rsu[*].appl.headerLength = 256 bit
#*.rsu[*].appl.dataOnSch = true
#*.rsu[*].appl.memoryElapsed = 30s
#*.rsu[*].appl.forgetMemoryInterval = 60s

##########################################################
#                      AppLayer                          #
##########################################################
*.node[*].applType = "org.car2x.veins.modules.routing.AOMDV"
*.node[*].appl.headerLength = 184bit
*.node[*].appl.sendBeacons = true
*.node[*].appl.callRoutings = true
*.node[*].appl.dataOnSch = false
*.node[*].appl.beaconInterval = 1s
*.node[*].appl.neighborElapsed = 2s
*.node[*].appl.examineNeighborsInterval = 1.5s
*.node[*].appl.memoryElapsed = 30s
*.node[*].appl.forgetMemoryInterval = 30s
*.node[*].appl.routingPlan = xmldoc("config.xml")
*.node[*].appl.triggerPlan = xmldoc("config.xml")

##########################################################
#                      Mobility                          #
##########################################################
*.node[0].posX = 300
*.node[0].posY = 200
*.node[1].posX = 700
*.node[1].posY = 200
*.node[2].posX = 1100
*.node[2].posY = 200
*.node[3].posX = 1500
*.node[3].posY = 200
*.node[4].posX = 1900
*.node[4].posY = 200
*.node[5].posX = 300
*.node[5].posY = 500

*.node[6].posX = 1100
*.node[6].posY = 500

*.node[7].posX = 1900
*.node[7].posY = 500
*.node[8].posX = 300
*.node[8].posY = 900
*.node[9].posX = 700
*.node[9].posY = 900
*.node[10].posX = 1100
*.node[10].posY = 900
#*.node[11].posX = 1500
#*.node[11].posY = 800
#*.node[12].posX = 1900
#*.node[12].posY = 800
#*.node[13].posX = 300
#*.node[13].posY = 1100

#*.node[14].posX = 1100
#*.node[14].posY = 1100

#*.node[15].posX = 1900
#*.node[15].posY = 1100
#*.node[16].posX = 300
#*.node[16].posY = 1400
#*.node[17].posX = 700
#*.node[17].posY = 1400
#*.node[18].posX = 1100
#*.node[18].posY = 1400
#*.node[19].posX = 1500
#*.node[19].posY = 1400
#*.node[20].posX = 1900
#*.node[20].posY = 1400
*.node[*].posZ = 1.5
*.node[*].mobility.staticTrajectory = true
*.node[*].mobility.trajectory = xmldoc("config.xml")